LTspice 24.1.10 for Windows
Circuit: C:\Users\owend\Desktop\Projects\LCR\LCR_Meter\simulation\diff_ac.net
Start Time: Sat Mar 21 19:45:40 2026
solver = Normal
Maximum thread count: 16
tnom = 27
temp = 27
method = trap
Direct Newton iteration for .op point succeeded.
Total elapsed time: 0.041 seconds.

Files loaded:
C:\Users\owend\Desktop\Projects\LCR\LCR_Meter\simulation\diff_ac.net
C:\Users\owend\Desktop\Projects\LCR\LCR_Meter\simulation\models\ths4561.txt

