LTspice 26.0.1 for Windows
Circuit: C:\Users\owend\OneDrive\Desktop\LCR_Meter\repo\LCR_Meter\simulation\diff_ac.net
Start Time: Mon Apr 13 22:26:56 2026
solver = Normal
Maximum thread count: 12
tnom = 27
temp = 27
method = modified trap
Direct Newton iteration succeeded in finding operating point.
Total elapsed time: 0.083 seconds.

Files loaded:
C:\Users\owend\OneDrive\Desktop\LCR_Meter\repo\LCR_Meter\simulation\diff_ac.net
C:\Users\owend\OneDrive\Desktop\LCR_Meter\repo\LCR_Meter\simulation\models\ths4561.txt

