LTspice 24.1.10 for Windows
Circuit: C:\Users\owend\Desktop\Projects\LCR\LCR_Meter\simulation\Draft1.net
Start Time: Sun Mar 29 01:08:16 2026
solver = Normal
Maximum thread count: 16
tnom = 27
temp = 27
method = trap
Direct Newton iteration for .op point succeeded.
Warning: Simulation tolerance relaxed to achieve convergence from 1.3723251016625698e-06 to 1.3723251016635697e-06 seconds.
Warning: Simulation tolerance relaxed to achieve convergence from 1.3723251016645696e-06 to 1.3723251016655696e-06 seconds.
Warning: Simulation tolerance relaxed to achieve convergence from 1.3723251016655696e-06 to 1.3723251016665695e-06 seconds.
Warning: Simulation tolerance relaxed to achieve convergence from 1.3723251016665695e-06 to 1.3723251016675694e-06 seconds.
Warning: Simulation tolerance relaxed to achieve convergence from 1.3723251016675694e-06 to 1.3723251016685693e-06 seconds.
Warning: Simulation tolerance relaxed to achieve convergence from 1.3723251016685693e-06 to 1.3723251016695692e-06 seconds.
Warning: Simulation tolerance relaxed to achieve convergence from 1.3723251016695692e-06 to 1.3723251016705692e-06 seconds.
Warning: Simulation tolerance relaxed to achieve convergence from 1.3723251016705692e-06 to 1.3723251016715691e-06 seconds.
Warning: Simulation tolerance relaxed to achieve convergence from 1.3723251016715691e-06 to 1.3723251016725690e-06 seconds.
Warning: Simulation tolerance relaxed to achieve convergence from 1.3723251016725690e-06 to 1.3723251016735689e-06 seconds.
Warning: Simulation tolerance relaxed to achieve convergence from 1.3723251016775688e-06 to 1.3723251016785688e-06 seconds.
Warning: Simulation tolerance relaxed to achieve convergence from 1.3723251016785688e-06 to 1.3723251016795687e-06 seconds.
Warning: Simulation tolerance relaxed to achieve convergence from 1.3723251016795687e-06 to 1.3723251016805686e-06 seconds.
Warning: Simulation tolerance relaxed to achieve convergence from 1.3723251016805686e-06 to 1.3723251016815685e-06 seconds.
Warning: Simulation tolerance relaxed to achieve convergence from 1.3723251016815685e-06 to 1.3723251016825684e-06 seconds.
Warning: Simulation tolerance relaxed to achieve convergence from 1.3723251016825684e-06 to 1.3723251016835684e-06 seconds.
Warning: Simulation tolerance relaxed to achieve convergence from 1.3723251016835684e-06 to 1.3723251016845683e-06 seconds.
Warning: Simulation tolerance relaxed to achieve convergence from 1.3723251016845683e-06 to 1.3723251016855682e-06 seconds.
Warning: Simulation tolerance relaxed to achieve convergence from 1.3723251016855682e-06 to 1.3723251016865681e-06 seconds.
Warning: Simulation tolerance relaxed to achieve convergence from 1.3723251016865681e-06 to 1.3723251016875681e-06 seconds.
Warning: Simulation tolerance relaxed to achieve convergence from 1.3723251016875681e-06 to 1.3723251016885680e-06 seconds.
Warning: Simulation tolerance relaxed to achieve convergence from 1.3723251016885680e-06 to 1.3723251016895679e-06 seconds.
Warning: Simulation tolerance relaxed to achieve convergence from 1.3723251016895679e-06 to 1.3723251016905678e-06 seconds.
Warning: Simulation tolerance relaxed to achieve convergence from 1.3723251016905678e-06 to 1.3723251016915677e-06 seconds.
Warning: Simulation tolerance relaxed to achieve convergence from 1.3723251016915677e-06 to 1.3723251016925677e-06 seconds.
Warning: Simulation tolerance relaxed to achieve convergence from 1.3723251016925677e-06 to 1.3723251016935676e-06 seconds.
Warning: Simulation tolerance relaxed to achieve convergence from 1.3723251016935676e-06 to 1.3723251016945675e-06 seconds.
Warning: Simulation tolerance relaxed to achieve convergence from 1.3723251016945675e-06 to 1.3723251016955674e-06 seconds.
Warning: Simulation tolerance relaxed to achieve convergence from 1.3723251016955674e-06 to 1.3723251016965674e-06 seconds.
Warning: Simulation tolerance relaxed to achieve convergence from 1.3723251016965674e-06 to 1.3723251016975673e-06 seconds.
Warning: Simulation tolerance relaxed to achieve convergence from 1.3723251016975673e-06 to 1.3723251016985672e-06 seconds.
Warning: Simulation tolerance relaxed to achieve convergence from 1.3723251016985672e-06 to 1.3723251016995671e-06 seconds.
Warning: Simulation tolerance relaxed to achieve convergence from 1.3723251016995671e-06 to 1.3723251017005671e-06 seconds.
Warning: Simulation tolerance relaxed to achieve convergence from 1.3723251017005671e-06 to 1.3723251017015670e-06 seconds.
Warning: Simulation tolerance relaxed to achieve convergence from 1.3723251017015670e-06 to 1.3723251017025669e-06 seconds.
Warning: Simulation tolerance relaxed to achieve convergence from 1.3723251017025669e-06 to 1.3723251017035668e-06 seconds.
Warning: Simulation tolerance relaxed to achieve convergence from 1.3723251017035668e-06 to 1.3723251017045667e-06 seconds.
Warning: Simulation tolerance relaxed to achieve convergence from 1.3723251017045667e-06 to 1.3723251017055667e-06 seconds.
Warning: Simulation tolerance relaxed to achieve convergence from 1.3723251017055667e-06 to 1.3723251017065666e-06 seconds.
Warning: Simulation tolerance relaxed to achieve convergence from 1.3723251017065666e-06 to 1.3723251017075665e-06 seconds.
Warning: Simulation tolerance relaxed to achieve convergence from 1.3723251017075665e-06 to 1.3723251017085664e-06 seconds.
Warning: Simulation tolerance relaxed to achieve convergence from 1.3723251017085664e-06 to 1.3723251017095664e-06 seconds.
Warning: Simulation tolerance relaxed to achieve convergence from 1.3723251017095664e-06 to 1.3723251017105663e-06 seconds.
Warning: Simulation tolerance relaxed to achieve convergence from 1.3723251017105663e-06 to 1.3723251017115662e-06 seconds.
Warning: Simulation tolerance relaxed to achieve convergence from 1.3723251017115662e-06 to 1.3723251017125661e-06 seconds.
Warning: Simulation tolerance relaxed to achieve convergence from 1.3723251017125661e-06 to 1.3723251017135660e-06 seconds.
Warning: Simulation tolerance relaxed to achieve convergence from 1.3723251017135660e-06 to 1.3723251017145660e-06 seconds.
Warning: Simulation tolerance relaxed to achieve convergence from 1.3723251017145660e-06 to 1.3723251017155659e-06 seconds.
Warning: Simulation tolerance relaxed to achieve convergence from 1.3723251017155659e-06 to 1.3723251017165658e-06 seconds.
Warning: Simulation tolerance relaxed to achieve convergence from 1.3723251017165658e-06 to 1.3723251017175657e-06 seconds.
Warning: Simulation tolerance relaxed to achieve convergence from 1.3723251017175657e-06 to 1.3723251017185657e-06 seconds.
Warning: Simulation tolerance relaxed to achieve convergence from 1.3723251017185657e-06 to 1.3723251017195656e-06 seconds.
Warning: Simulation tolerance relaxed to achieve convergence from 1.3723251017195656e-06 to 1.3723251017205655e-06 seconds.
Warning: Simulation tolerance relaxed to achieve convergence from 1.3723251017205655e-06 to 1.3723251017215654e-06 seconds.
Warning: Simulation tolerance relaxed to achieve convergence from 1.3723251017215654e-06 to 1.3723251017225653e-06 seconds.
Warning: Simulation tolerance relaxed to achieve convergence from 1.3723251017225653e-06 to 1.3723251017235653e-06 seconds.
Warning: Simulation tolerance relaxed to achieve convergence from 1.3723251017235653e-06 to 1.3723251017245652e-06 seconds.
Warning: Simulation tolerance relaxed to achieve convergence from 1.3723251017245652e-06 to 1.3723251017255651e-06 seconds.
Warning: Simulation tolerance relaxed to achieve convergence from 1.3723251017255651e-06 to 1.3723251017265650e-06 seconds.
Warning: Simulation tolerance relaxed to achieve convergence from 1.3723251017265650e-06 to 1.3723251017275650e-06 seconds.
Warning: Simulation tolerance relaxed to achieve convergence from 1.3723251017275650e-06 to 1.3723251017285649e-06 seconds.
Warning: Simulation tolerance relaxed to achieve convergence from 1.3723251017285649e-06 to 1.3723251017295648e-06 seconds.
Warning: Simulation tolerance relaxed to achieve convergence from 1.3723251017295648e-06 to 1.3723251017305647e-06 seconds.
Warning: Simulation tolerance relaxed to achieve convergence from 1.3723251017305647e-06 to 1.3723251017315646e-06 seconds.
Warning: Simulation tolerance relaxed to achieve convergence from 1.3723251017315646e-06 to 1.3723251017325646e-06 seconds.
Warning: Simulation tolerance relaxed to achieve convergence from 1.3723251017325646e-06 to 1.3723251017335645e-06 seconds.
Warning: Simulation tolerance relaxed to achieve convergence from 1.3723251017335645e-06 to 1.3723251017345644e-06 seconds.
Warning: Simulation tolerance relaxed to achieve convergence from 1.3723251017345644e-06 to 1.3723251017355643e-06 seconds.
Warning: Simulation tolerance relaxed to achieve convergence from 1.3723251017355643e-06 to 1.3723251017365643e-06 seconds.
Warning: Simulation tolerance relaxed to achieve convergence from 1.3723251017365643e-06 to 1.3723251017375642e-06 seconds.
Warning: Simulation tolerance relaxed to achieve convergence from 1.3723251017375642e-06 to 1.3723251017385641e-06 seconds.
Warning: Simulation tolerance relaxed to achieve convergence from 1.3723251017385641e-06 to 1.3723251017395640e-06 seconds.
Warning: Simulation tolerance relaxed to achieve convergence from 1.3723251017395640e-06 to 1.3723251017405639e-06 seconds.
Warning: Simulation tolerance relaxed to achieve convergence from 1.3723251017405639e-06 to 1.3723251017415639e-06 seconds.
Warning: Simulation tolerance relaxed to achieve convergence from 1.3723251017415639e-06 to 1.3723251017425638e-06 seconds.
Warning: Simulation tolerance relaxed to achieve convergence from 1.3723251017425638e-06 to 1.3723251017435637e-06 seconds.
Warning: Simulation tolerance relaxed to achieve convergence from 1.3723251017435637e-06 to 1.3723251017445636e-06 seconds.
Warning: Simulation tolerance relaxed to achieve convergence from 1.3723251017445636e-06 to 1.3723251017455636e-06 seconds.
Warning: Simulation tolerance relaxed to achieve convergence from 1.3723251017455636e-06 to 1.3723251017465635e-06 seconds.
Warning: Simulation tolerance relaxed to achieve convergence from 1.3723251017465635e-06 to 1.3723251017475634e-06 seconds.
Warning: Simulation tolerance relaxed to achieve convergence from 1.3723251017475634e-06 to 1.3723251017485633e-06 seconds.
Warning: Simulation tolerance relaxed to achieve convergence from 1.3723251017485633e-06 to 1.3723251017495632e-06 seconds.
Warning: Simulation tolerance relaxed to achieve convergence from 1.3723251017495632e-06 to 1.3723251017505632e-06 seconds.
Warning: Simulation tolerance relaxed to achieve convergence from 1.3723251017505632e-06 to 1.3723251017515631e-06 seconds.
Warning: Simulation tolerance relaxed to achieve convergence from 1.3723251017515631e-06 to 1.3723251017525630e-06 seconds.
Warning: Simulation tolerance relaxed to achieve convergence from 1.3723251017525630e-06 to 1.3723251017535629e-06 seconds.
Warning: Simulation tolerance relaxed to achieve convergence from 1.3723251017535629e-06 to 1.3723251017545629e-06 seconds.
Warning: Simulation tolerance relaxed to achieve convergence from 1.3723251017545629e-06 to 1.3723251017555628e-06 seconds.
Warning: Simulation tolerance relaxed to achieve convergence from 1.3723251017555628e-06 to 1.3723251017565627e-06 seconds.
Warning: Simulation tolerance relaxed to achieve convergence from 1.3723251017565627e-06 to 1.3723251017575626e-06 seconds.
Warning: Simulation tolerance relaxed to achieve convergence from 1.3723251017575626e-06 to 1.3723251017585626e-06 seconds.
Warning: Simulation tolerance relaxed to achieve convergence from 1.3723251017585626e-06 to 1.3723251017595625e-06 seconds.
Warning: Simulation tolerance relaxed to achieve convergence from 1.3723251017595625e-06 to 1.3723251017605624e-06 seconds.
Warning: Simulation tolerance relaxed to achieve convergence from 1.3723251017605624e-06 to 1.3723251017615623e-06 seconds.
Warning: Simulation tolerance relaxed to achieve convergence from 1.3723251017615623e-06 to 1.3723251017625622e-06 seconds.
Warning: Simulation tolerance relaxed to achieve convergence from 1.3723251017625622e-06 to 1.3723251017635622e-06 seconds.
Warning: Simulation tolerance relaxed to achieve convergence from 1.3723251017635622e-06 to 1.3723251017645621e-06 seconds.
Warning: Simulation tolerance relaxed to achieve convergence from 1.3723251017645621e-06 to 1.3723251017655620e-06 seconds.
Warning: Simulation tolerance relaxed to achieve convergence from 1.3723251017655620e-06 to 1.3723251017665619e-06 seconds.
Warning: Simulation tolerance relaxed to achieve convergence from 1.3723251017665619e-06 to 1.3723251017675619e-06 seconds.
Warning: Simulation tolerance relaxed to achieve convergence from 1.3723251017675619e-06 to 1.3723251017685618e-06 seconds.
Warning: Simulation tolerance relaxed to achieve convergence from 1.3723251017685618e-06 to 1.3723251017695617e-06 seconds.
Warning: Simulation tolerance relaxed to achieve convergence from 1.3723251017695617e-06 to 1.3723251017705616e-06 seconds.
Warning: Simulation tolerance relaxed to achieve convergence from 1.3723251017705616e-06 to 1.3723251017715615e-06 seconds.
Warning: Simulation tolerance relaxed to achieve convergence from 1.3723251017715615e-06 to 1.3723251017725615e-06 seconds.
Warning: Simulation tolerance relaxed to achieve convergence from 1.3723251017725615e-06 to 1.3723251017735614e-06 seconds.
Warning: Simulation tolerance relaxed to achieve convergence from 1.3723251017735614e-06 to 1.3723251017745613e-06 seconds.
Warning: Simulation tolerance relaxed to achieve convergence from 1.3723251017745613e-06 to 1.3723251017755612e-06 seconds.
Warning: Simulation tolerance relaxed to achieve convergence from 1.3723251017755612e-06 to 1.3723251017765612e-06 seconds.
Warning: Simulation tolerance relaxed to achieve convergence from 1.3723251017765612e-06 to 1.3723251017775611e-06 seconds.
Warning: Simulation tolerance relaxed to achieve convergence from 1.3723251017775611e-06 to 1.3723251017785610e-06 seconds.
Warning: Simulation tolerance relaxed to achieve convergence from 1.3723251017785610e-06 to 1.3723251017795609e-06 seconds.
Warning: Simulation tolerance relaxed to achieve convergence from 1.3723251017795609e-06 to 1.3723251017805608e-06 seconds.
Warning: Simulation tolerance relaxed to achieve convergence from 1.3723251017805608e-06 to 1.3723251017815608e-06 seconds.
Warning: Simulation tolerance relaxed to achieve convergence from 1.3723251017815608e-06 to 1.3723251017825607e-06 seconds.
Warning: Simulation tolerance relaxed to achieve convergence from 1.3723251017825607e-06 to 1.3723251017835606e-06 seconds.
Warning: Simulation tolerance relaxed to achieve convergence from 1.3723251017835606e-06 to 1.3723251017845605e-06 seconds.
Warning: Simulation tolerance relaxed to achieve convergence from 1.3723251017845605e-06 to 1.3723251017855605e-06 seconds.
Warning: Simulation tolerance relaxed to achieve convergence from 1.3723251017855605e-06 to 1.3723251017865604e-06 seconds.
Warning: Simulation tolerance relaxed to achieve convergence from 1.3723251017865604e-06 to 1.3723251017875603e-06 seconds.
Warning: Simulation tolerance relaxed to achieve convergence from 1.3723251017875603e-06 to 1.3723251017885602e-06 seconds.
Warning: Simulation tolerance relaxed to achieve convergence from 1.3723251017885602e-06 to 1.3723251017895601e-06 seconds.
Warning: Simulation tolerance relaxed to achieve convergence from 1.3723251017895601e-06 to 1.3723251017905601e-06 seconds.
Warning: Simulation tolerance relaxed to achieve convergence from 1.3723251017905601e-06 to 1.3723251017915600e-06 seconds.
Warning: Simulation tolerance relaxed to achieve convergence from 1.3723251017915600e-06 to 1.3723251017925599e-06 seconds.
Warning: Simulation tolerance relaxed to achieve convergence from 1.3723251017925599e-06 to 1.3723251017935598e-06 seconds.
Warning: Simulation tolerance relaxed to achieve convergence from 1.3723251017935598e-06 to 1.3723251017945598e-06 seconds.
Warning: Simulation tolerance relaxed to achieve convergence from 1.3723251017945598e-06 to 1.3723251017955597e-06 seconds.
Warning: Simulation tolerance relaxed to achieve convergence from 1.3723251017955597e-06 to 1.3723251017965596e-06 seconds.
Warning: Simulation tolerance relaxed to achieve convergence from 1.3723251017965596e-06 to 1.3723251017975595e-06 seconds.
Warning: Simulation tolerance relaxed to achieve convergence from 1.3723251017975595e-06 to 1.3723251017985594e-06 seconds.
Warning: Simulation tolerance relaxed to achieve convergence from 1.3723251017985594e-06 to 1.3723251017995594e-06 seconds.
Warning: Simulation tolerance relaxed to achieve convergence from 1.3723251017995594e-06 to 1.3723251018005593e-06 seconds.
Warning: Simulation tolerance relaxed to achieve convergence from 1.3723251018005593e-06 to 1.3723251018015592e-06 seconds.
Warning: Simulation tolerance relaxed to achieve convergence from 1.3723251018015592e-06 to 1.3723251018025591e-06 seconds.
Warning: Simulation tolerance relaxed to achieve convergence from 1.3723251018025591e-06 to 1.3723251018035591e-06 seconds.
Warning: Simulation tolerance relaxed to achieve convergence from 1.3723251018035591e-06 to 1.3723251018045590e-06 seconds.
Warning: Simulation tolerance relaxed to achieve convergence from 1.3723251018045590e-06 to 1.3723251018055589e-06 seconds.
Warning: Simulation tolerance relaxed to achieve convergence from 1.3723251018055589e-06 to 1.3723251018065588e-06 seconds.
Warning: Simulation tolerance relaxed to achieve convergence from 1.3723251018065588e-06 to 1.3723251018075587e-06 seconds.
Warning: Simulation tolerance relaxed to achieve convergence from 1.3723251018075587e-06 to 1.3723251018085587e-06 seconds.
Warning: Simulation tolerance relaxed to achieve convergence from 1.3723251018085587e-06 to 1.3723251018095586e-06 seconds.
Warning: Simulation tolerance relaxed to achieve convergence from 1.3723251018095586e-06 to 1.3723251018105585e-06 seconds.
Warning: Simulation tolerance relaxed to achieve convergence from 1.3723251018105585e-06 to 1.3723251018115584e-06 seconds.
Warning: Simulation tolerance relaxed to achieve convergence from 1.3723251018115584e-06 to 1.3723251018125584e-06 seconds.
Warning: Simulation tolerance relaxed to achieve convergence from 1.3723251018125584e-06 to 1.3723251018135583e-06 seconds.
Warning: Simulation tolerance relaxed to achieve convergence from 1.3723251018135583e-06 to 1.3723251018145582e-06 seconds.
Warning: Simulation tolerance relaxed to achieve convergence from 1.3723251018145582e-06 to 1.3723251018155581e-06 seconds.
Warning: Simulation tolerance relaxed to achieve convergence from 1.3723251018155581e-06 to 1.3723251018165580e-06 seconds.
Warning: Simulation tolerance relaxed to achieve convergence from 1.3723251018165580e-06 to 1.3723251018175580e-06 seconds.
Warning: Simulation tolerance relaxed to achieve convergence from 1.3723251018175580e-06 to 1.3723251018185579e-06 seconds.
Warning: Simulation tolerance relaxed to achieve convergence from 1.3723251018185579e-06 to 1.3723251018195578e-06 seconds.
Warning: Simulation tolerance relaxed to achieve convergence from 1.3723251018195578e-06 to 1.3723251018205577e-06 seconds.
Warning: Simulation tolerance relaxed to achieve convergence from 1.3723251018205577e-06 to 1.3723251018215577e-06 seconds.
Warning: Simulation tolerance relaxed to achieve convergence from 1.3723251018215577e-06 to 1.3723251018225576e-06 seconds.
Warning: Simulation tolerance relaxed to achieve convergence from 1.3723251018225576e-06 to 1.3723251018235575e-06 seconds.
Warning: Simulation tolerance relaxed to achieve convergence from 1.3723251018235575e-06 to 1.3723251018245574e-06 seconds.
Warning: Simulation tolerance relaxed to achieve convergence from 1.3723251018245574e-06 to 1.3723251018255574e-06 seconds.
Warning: Simulation tolerance relaxed to achieve convergence from 1.3723251018255574e-06 to 1.3723251018265573e-06 seconds.
Warning: Simulation tolerance relaxed to achieve convergence from 1.3723251018265573e-06 to 1.3723251018275572e-06 seconds.
Warning: Simulation tolerance relaxed to achieve convergence from 1.3723251018275572e-06 to 1.3723251018285571e-06 seconds.
Warning: Simulation tolerance relaxed to achieve convergence from 1.3723251018285571e-06 to 1.3723251018295570e-06 seconds.
Warning: Simulation tolerance relaxed to achieve convergence from 1.3723251018295570e-06 to 1.3723251018305570e-06 seconds.
Warning: Simulation tolerance relaxed to achieve convergence from 1.3723251018305570e-06 to 1.3723251018315569e-06 seconds.
Warning: Simulation tolerance relaxed to achieve convergence from 1.3723251018315569e-06 to 1.3723251018325568e-06 seconds.
Warning: Simulation tolerance relaxed to achieve convergence from 1.3723251018325568e-06 to 1.3723251018335567e-06 seconds.
Warning: Simulation tolerance relaxed to achieve convergence from 1.3723251018335567e-06 to 1.3723251018345567e-06 seconds.
Warning: Simulation tolerance relaxed to achieve convergence from 1.3723251018345567e-06 to 1.3723251018355566e-06 seconds.
Warning: Simulation tolerance relaxed to achieve convergence from 1.3723251018355566e-06 to 1.3723251018365565e-06 seconds.
Warning: Simulation tolerance relaxed to achieve convergence from 1.3723251018365565e-06 to 1.3723251018375564e-06 seconds.
Warning: Simulation tolerance relaxed to achieve convergence from 1.3723251018375564e-06 to 1.3723251018385563e-06 seconds.
Warning: Simulation tolerance relaxed to achieve convergence from 1.3723251018385563e-06 to 1.3723251018395563e-06 seconds.
Warning: Simulation tolerance relaxed to achieve convergence from 1.3723251018395563e-06 to 1.3723251018405562e-06 seconds.
Warning: Simulation tolerance relaxed to achieve convergence from 1.3723251018405562e-06 to 1.3723251018415561e-06 seconds.
Warning: Simulation tolerance relaxed to achieve convergence from 1.3723251018415561e-06 to 1.3723251018425560e-06 seconds.
Warning: Simulation tolerance relaxed to achieve convergence from 1.3723251018425560e-06 to 1.3723251018435560e-06 seconds.
Warning: Simulation tolerance relaxed to achieve convergence from 1.3723251018435560e-06 to 1.3723251018445559e-06 seconds.
Warning: Simulation tolerance relaxed to achieve convergence from 1.3723251018445559e-06 to 1.3723251018455558e-06 seconds.
Warning: Simulation tolerance relaxed to achieve convergence from 1.3723251018455558e-06 to 1.3723251018465557e-06 seconds.
Warning: Simulation tolerance relaxed to achieve convergence from 1.3723251018465557e-06 to 1.3723251018475556e-06 seconds.
Warning: Simulation tolerance relaxed to achieve convergence from 1.3723251018475556e-06 to 1.3723251018485556e-06 seconds.
Warning: Simulation tolerance relaxed to achieve convergence from 1.3723251018485556e-06 to 1.3723251018495555e-06 seconds.
Warning: Simulation tolerance relaxed to achieve convergence from 1.3723251018495555e-06 to 1.3723251018505554e-06 seconds.
Warning: Simulation tolerance relaxed to achieve convergence from 1.3723251018505554e-06 to 1.3723251018515553e-06 seconds.
Warning: Simulation tolerance relaxed to achieve convergence from 1.3723251018515553e-06 to 1.3723251018525553e-06 seconds.
Warning: Simulation tolerance relaxed to achieve convergence from 1.3723251018525553e-06 to 1.3723251018535552e-06 seconds.
Warning: Simulation tolerance relaxed to achieve convergence from 1.3723251018535552e-06 to 1.3723251018545551e-06 seconds.
Warning: Simulation tolerance relaxed to achieve convergence from 1.3723251018545551e-06 to 1.3723251018555550e-06 seconds.
Warning: Simulation tolerance relaxed to achieve convergence from 1.3723251018555550e-06 to 1.3723251018565549e-06 seconds.
Warning: Simulation tolerance relaxed to achieve convergence from 1.3723251018565549e-06 to 1.3723251018575549e-06 seconds.
Warning: Simulation tolerance relaxed to achieve convergence from 1.3723251018575549e-06 to 1.3723251018585548e-06 seconds.
Warning: Simulation tolerance relaxed to achieve convergence from 1.3723251018585548e-06 to 1.3723251018595547e-06 seconds.
Warning: Simulation tolerance relaxed to achieve convergence from 1.3723251018595547e-06 to 1.3723251018605546e-06 seconds.
Warning: Simulation tolerance relaxed to achieve convergence from 1.3723251018605546e-06 to 1.3723251018615546e-06 seconds.
Warning: Simulation tolerance relaxed to achieve convergence from 1.3723251018615546e-06 to 1.3723251018625545e-06 seconds.
Warning: Simulation tolerance relaxed to achieve convergence from 1.3723251018625545e-06 to 1.3723251018635544e-06 seconds.
Warning: Simulation tolerance relaxed to achieve convergence from 1.3723251018635544e-06 to 1.3723251018645543e-06 seconds.
Warning: Simulation tolerance relaxed to achieve convergence from 1.3723251018645543e-06 to 1.3723251018655542e-06 seconds.
Warning: Simulation tolerance relaxed to achieve convergence from 1.3723251018655542e-06 to 1.3723251018665542e-06 seconds.
Warning: Simulation tolerance relaxed to achieve convergence from 1.3723251018665542e-06 to 1.3723251018675541e-06 seconds.
Warning: Simulation tolerance relaxed to achieve convergence from 1.3723251018675541e-06 to 1.3723251018685540e-06 seconds.
Warning: Simulation tolerance relaxed to achieve convergence from 1.3723251018685540e-06 to 1.3723251018695539e-06 seconds.
Warning: Simulation tolerance relaxed to achieve convergence from 1.3723251018695539e-06 to 1.3723251018705539e-06 seconds.
Warning: Simulation tolerance relaxed to achieve convergence from 1.3723251018705539e-06 to 1.3723251018715538e-06 seconds.
Warning: Simulation tolerance relaxed to achieve convergence from 1.3723251018715538e-06 to 1.3723251018725537e-06 seconds.
Warning: Simulation tolerance relaxed to achieve convergence from 1.3723251018725537e-06 to 1.3723251018735536e-06 seconds.
Warning: Simulation tolerance relaxed to achieve convergence from 1.3723251018735536e-06 to 1.3723251018745535e-06 seconds.
Warning: Simulation tolerance relaxed to achieve convergence from 1.3723251018745535e-06 to 1.3723251018755535e-06 seconds.
Warning: Simulation tolerance relaxed to achieve convergence from 1.3723251018755535e-06 to 1.3723251018765534e-06 seconds.
Warning: Simulation tolerance relaxed to achieve convergence from 1.3723251018765534e-06 to 1.3723251018775533e-06 seconds.
Warning: Simulation tolerance relaxed to achieve convergence from 1.3723251018775533e-06 to 1.3723251018785532e-06 seconds.
Warning: Simulation tolerance relaxed to achieve convergence from 1.3723251018785532e-06 to 1.3723251018795532e-06 seconds.
Warning: Simulation tolerance relaxed to achieve convergence from 1.3723251018795532e-06 to 1.3723251018805531e-06 seconds.
Warning: Simulation tolerance relaxed to achieve convergence from 1.3723251018805531e-06 to 1.3723251018815530e-06 seconds.
Warning: Simulation tolerance relaxed to achieve convergence from 1.3723251018815530e-06 to 1.3723251018825529e-06 seconds.
Warning: Simulation tolerance relaxed to achieve convergence from 1.3723251018825529e-06 to 1.3723251018835528e-06 seconds.
Warning: Simulation tolerance relaxed to achieve convergence from 1.3723251018835528e-06 to 1.3723251018845528e-06 seconds.
Warning: Simulation tolerance relaxed to achieve convergence from 1.3723251018845528e-06 to 1.3723251018855527e-06 seconds.
Warning: Simulation tolerance relaxed to achieve convergence from 1.3723251018855527e-06 to 1.3723251018865526e-06 seconds.
Warning: Simulation tolerance relaxed to achieve convergence from 1.3723251018865526e-06 to 1.3723251018875525e-06 seconds.
Warning: Simulation tolerance relaxed to achieve convergence from 1.3723251018875525e-06 to 1.3723251018885525e-06 seconds.
Warning: Simulation tolerance relaxed to achieve convergence from 1.3723251018885525e-06 to 1.3723251018895524e-06 seconds.
Warning: Simulation tolerance relaxed to achieve convergence from 1.3723251018895524e-06 to 1.3723251018905523e-06 seconds.
Warning: Simulation tolerance relaxed to achieve convergence from 1.3723251018905523e-06 to 1.3723251018915522e-06 seconds.
Warning: Simulation tolerance relaxed to achieve convergence from 1.3723251018915522e-06 to 1.3723251018925522e-06 seconds.
Warning: Simulation tolerance relaxed to achieve convergence from 1.3723251018925522e-06 to 1.3723251018935521e-06 seconds.
Warning: Simulation tolerance relaxed to achieve convergence from 1.3723251018935521e-06 to 1.3723251018945520e-06 seconds.
Warning: Simulation tolerance relaxed to achieve convergence from 1.3723251018945520e-06 to 1.3723251018955519e-06 seconds.
Warning: Simulation tolerance relaxed to achieve convergence from 1.3723251018955519e-06 to 1.3723251018965518e-06 seconds.
Warning: Simulation tolerance relaxed to achieve convergence from 1.3723251018965518e-06 to 1.3723251018975518e-06 seconds.
Warning: Simulation tolerance relaxed to achieve convergence from 1.3723251018975518e-06 to 1.3723251018985517e-06 seconds.
Warning: Simulation tolerance relaxed to achieve convergence from 1.3723251018985517e-06 to 1.3723251018995516e-06 seconds.
Warning: Simulation tolerance relaxed to achieve convergence from 1.3723251018995516e-06 to 1.3723251019005515e-06 seconds.
Warning: Simulation tolerance relaxed to achieve convergence from 1.3723251019005515e-06 to 1.3723251019015515e-06 seconds.
Warning: Simulation tolerance relaxed to achieve convergence from 1.3723251019015515e-06 to 1.3723251019025514e-06 seconds.
Warning: Simulation tolerance relaxed to achieve convergence from 1.3723251019025514e-06 to 1.3723251019035513e-06 seconds.
Warning: Simulation tolerance relaxed to achieve convergence from 1.3723251019035513e-06 to 1.3723251019045512e-06 seconds.
Warning: Simulation tolerance relaxed to achieve convergence from 1.3723251019045512e-06 to 1.3723251019055511e-06 seconds.
Warning: Simulation tolerance relaxed to achieve convergence from 1.3723251019055511e-06 to 1.3723251019065511e-06 seconds.
Warning: Simulation tolerance relaxed to achieve convergence from 1.3723251019065511e-06 to 1.3723251019075510e-06 seconds.
Warning: Simulation tolerance relaxed to achieve convergence from 1.3723251019075510e-06 to 1.3723251019085509e-06 seconds.
Warning: Simulation tolerance relaxed to achieve convergence from 1.3723251019085509e-06 to 1.3723251019095508e-06 seconds.
Warning: Simulation tolerance relaxed to achieve convergence from 1.3723251019095508e-06 to 1.3723251019105508e-06 seconds.
Warning: Simulation tolerance relaxed to achieve convergence from 1.3723251019105508e-06 to 1.3723251019115507e-06 seconds.
Warning: Simulation tolerance relaxed to achieve convergence from 1.3723251019115507e-06 to 1.3723251019125506e-06 seconds.
Warning: Simulation tolerance relaxed to achieve convergence from 1.3723251019125506e-06 to 1.3723251019135505e-06 seconds.
Warning: Simulation tolerance relaxed to achieve convergence from 1.3723251019135505e-06 to 1.3723251019145504e-06 seconds.
Warning: Simulation tolerance relaxed to achieve convergence from 1.3723251019145504e-06 to 1.3723251019155504e-06 seconds.
Warning: Simulation tolerance relaxed to achieve convergence from 1.3723251019155504e-06 to 1.3723251019165503e-06 seconds.
Warning: Simulation tolerance relaxed to achieve convergence from 1.3723251019165503e-06 to 1.3723251019175502e-06 seconds.
Warning: Simulation tolerance relaxed to achieve convergence from 1.3723251019175502e-06 to 1.3723251019185501e-06 seconds.
Warning: Simulation tolerance relaxed to achieve convergence from 1.3723251019185501e-06 to 1.3723251019195501e-06 seconds.
Warning: Simulation tolerance relaxed to achieve convergence from 1.3723251019195501e-06 to 1.3723251019205500e-06 seconds.
Warning: Simulation tolerance relaxed to achieve convergence from 1.3723251019205500e-06 to 1.3723251019215499e-06 seconds.
Warning: Simulation tolerance relaxed to achieve convergence from 1.3723251019215499e-06 to 1.3723251019225498e-06 seconds.
Warning: Simulation tolerance relaxed to achieve convergence from 1.3723251019225498e-06 to 1.3723251019235497e-06 seconds.
Warning: Simulation tolerance relaxed to achieve convergence from 1.3723251019235497e-06 to 1.3723251019245497e-06 seconds.
Warning: Simulation tolerance relaxed to achieve convergence from 1.3723251019245497e-06 to 1.3723251019255496e-06 seconds.
Warning: Simulation tolerance relaxed to achieve convergence from 1.3723251019255496e-06 to 1.3723251019265495e-06 seconds.
Warning: Simulation tolerance relaxed to achieve convergence from 1.3723251019265495e-06 to 1.3723251019275494e-06 seconds.
Warning: Simulation tolerance relaxed to achieve convergence from 1.3723251019275494e-06 to 1.3723251019285494e-06 seconds.
Warning: Simulation tolerance relaxed to achieve convergence from 1.3723251019285494e-06 to 1.3723251019295493e-06 seconds.
Warning: Simulation tolerance relaxed to achieve convergence from 1.3723251019295493e-06 to 1.3723251019305492e-06 seconds.
Warning: Simulation tolerance relaxed to achieve convergence from 1.3723251019305492e-06 to 1.3723251019315491e-06 seconds.
Warning: Simulation tolerance relaxed to achieve convergence from 1.3723251019315491e-06 to 1.3723251019325490e-06 seconds.
Warning: Simulation tolerance relaxed to achieve convergence from 1.3723251019325490e-06 to 1.3723251019335490e-06 seconds.
Warning: Simulation tolerance relaxed to achieve convergence from 1.3723251019335490e-06 to 1.3723251019345489e-06 seconds.
Warning: Simulation tolerance relaxed to achieve convergence from 1.3723251019345489e-06 to 1.3723251019355488e-06 seconds.
Warning: Simulation tolerance relaxed to achieve convergence from 1.3723251019355488e-06 to 1.3723251019365487e-06 seconds.
Warning: Simulation tolerance relaxed to achieve convergence from 1.3723251019365487e-06 to 1.3723251019375487e-06 seconds.
Warning: Simulation tolerance relaxed to achieve convergence from 1.3723251019375487e-06 to 1.3723251019385486e-06 seconds.
Warning: Simulation tolerance relaxed to achieve convergence from 1.3723251019385486e-06 to 1.3723251019395485e-06 seconds.
Warning: Simulation tolerance relaxed to achieve convergence from 1.3723251019395485e-06 to 1.3723251019405484e-06 seconds.
Warning: Simulation tolerance relaxed to achieve convergence from 1.3723251019405484e-06 to 1.3723251019415483e-06 seconds.
Warning: Simulation tolerance relaxed to achieve convergence from 1.3723251019415483e-06 to 1.3723251019425483e-06 seconds.
Warning: Simulation tolerance relaxed to achieve convergence from 1.3723251019425483e-06 to 1.3723251019435482e-06 seconds.
Warning: Simulation tolerance relaxed to achieve convergence from 1.3723251019435482e-06 to 1.3723251019445481e-06 seconds.
Warning: Simulation tolerance relaxed to achieve convergence from 1.3723251019445481e-06 to 1.3723251019455480e-06 seconds.
Warning: Simulation tolerance relaxed to achieve convergence from 1.3723251019455480e-06 to 1.3723251019465480e-06 seconds.
Warning: Simulation tolerance relaxed to achieve convergence from 1.3723251019465480e-06 to 1.3723251019475479e-06 seconds.
Warning: Simulation tolerance relaxed to achieve convergence from 1.3723251019475479e-06 to 1.3723251019485478e-06 seconds.
Warning: Simulation tolerance relaxed to achieve convergence from 1.3723251019485478e-06 to 1.3723251019495477e-06 seconds.
Warning: Simulation tolerance relaxed to achieve convergence from 1.3723251019495477e-06 to 1.3723251019505476e-06 seconds.
Warning: Simulation tolerance relaxed to achieve convergence from 1.3723251019505476e-06 to 1.3723251019515476e-06 seconds.
Warning: Simulation tolerance relaxed to achieve convergence from 1.3723251019515476e-06 to 1.3723251019525475e-06 seconds.
Warning: Simulation tolerance relaxed to achieve convergence from 1.3723251019525475e-06 to 1.3723251019535474e-06 seconds.
Warning: Simulation tolerance relaxed to achieve convergence from 1.3723251019535474e-06 to 1.3723251019545473e-06 seconds.
Warning: Simulation tolerance relaxed to achieve convergence from 1.3723251019545473e-06 to 1.3723251019555473e-06 seconds.
Warning: Simulation tolerance relaxed to achieve convergence from 1.3723251019555473e-06 to 1.3723251019565472e-06 seconds.
Warning: Simulation tolerance relaxed to achieve convergence from 1.3723251019565472e-06 to 1.3723251019575471e-06 seconds.
Warning: Simulation tolerance relaxed to achieve convergence from 1.3723251019575471e-06 to 1.3723251019585470e-06 seconds.
Warning: Simulation tolerance relaxed to achieve convergence from 1.3723251019585470e-06 to 1.3723251019595470e-06 seconds.
Warning: Simulation tolerance relaxed to achieve convergence from 1.3723251019595470e-06 to 1.3723251019605469e-06 seconds.
Warning: Simulation tolerance relaxed to achieve convergence from 1.3723251019605469e-06 to 1.3723251019615468e-06 seconds.
Warning: Simulation tolerance relaxed to achieve convergence from 1.3723251019615468e-06 to 1.3723251019625467e-06 seconds.
Warning: Simulation tolerance relaxed to achieve convergence from 1.3723251019625467e-06 to 1.3723251019635466e-06 seconds.
Warning: Simulation tolerance relaxed to achieve convergence from 1.3723251019635466e-06 to 1.3723251019645466e-06 seconds.
Warning: Simulation tolerance relaxed to achieve convergence from 1.3723251019645466e-06 to 1.3723251019655465e-06 seconds.
Warning: Simulation tolerance relaxed to achieve convergence from 1.3723251019655465e-06 to 1.3723251019665464e-06 seconds.
Warning: Simulation tolerance relaxed to achieve convergence from 1.3723251019665464e-06 to 1.3723251019675463e-06 seconds.
Warning: Simulation tolerance relaxed to achieve convergence from 1.3723251019675463e-06 to 1.3723251019685463e-06 seconds.
Warning: Simulation tolerance relaxed to achieve convergence from 1.3723251019685463e-06 to 1.3723251019695462e-06 seconds.
Warning: Simulation tolerance relaxed to achieve convergence from 1.3723251019695462e-06 to 1.3723251019705461e-06 seconds.
Warning: Simulation tolerance relaxed to achieve convergence from 1.3723251019705461e-06 to 1.3723251019715460e-06 seconds.
Warning: Simulation tolerance relaxed to achieve convergence from 1.3723251019715460e-06 to 1.3723251019725459e-06 seconds.
Warning: Simulation tolerance relaxed to achieve convergence from 1.3723251019725459e-06 to 1.3723251019735459e-06 seconds.
Warning: Simulation tolerance relaxed to achieve convergence from 1.3723251019735459e-06 to 1.3723251019745458e-06 seconds.
Warning: Simulation tolerance relaxed to achieve convergence from 1.3723251019745458e-06 to 1.3723251019755457e-06 seconds.
Warning: Simulation tolerance relaxed to achieve convergence from 1.3723251019755457e-06 to 1.3723251019765456e-06 seconds.
Warning: Simulation tolerance relaxed to achieve convergence from 1.3723251019765456e-06 to 1.3723251019775456e-06 seconds.
Warning: Simulation tolerance relaxed to achieve convergence from 1.3723251019775456e-06 to 1.3723251019785455e-06 seconds.
Warning: Simulation tolerance relaxed to achieve convergence from 1.3723251019785455e-06 to 1.3723251019795454e-06 seconds.
Warning: Simulation tolerance relaxed to achieve convergence from 1.3723251019795454e-06 to 1.3723251019805453e-06 seconds.
Warning: Simulation tolerance relaxed to achieve convergence from 1.3723251019805453e-06 to 1.3723251019815452e-06 seconds.
Warning: Simulation tolerance relaxed to achieve convergence from 1.3723251019815452e-06 to 1.3723251019825452e-06 seconds.
Warning: Simulation tolerance relaxed to achieve convergence from 1.3723251019825452e-06 to 1.3723251019835451e-06 seconds.
Warning: Simulation tolerance relaxed to achieve convergence from 1.3723251019835451e-06 to 1.3723251019845450e-06 seconds.
Warning: Simulation tolerance relaxed to achieve convergence from 1.3723251019845450e-06 to 1.3723251019855449e-06 seconds.
Warning: Simulation tolerance relaxed to achieve convergence from 1.3723251019855449e-06 to 1.3723251019865449e-06 seconds.
Warning: Simulation tolerance relaxed to achieve convergence from 1.3723251019865449e-06 to 1.3723251019875448e-06 seconds.
Warning: Simulation tolerance relaxed to achieve convergence from 1.3723251019875448e-06 to 1.3723251019885447e-06 seconds.
Warning: Simulation tolerance relaxed to achieve convergence from 1.3723251019885447e-06 to 1.3723251019895446e-06 seconds.
Warning: Simulation tolerance relaxed to achieve convergence from 1.3723251019895446e-06 to 1.3723251019905445e-06 seconds.
Warning: Simulation tolerance relaxed to achieve convergence from 1.3723251019905445e-06 to 1.3723251019915445e-06 seconds.
Warning: Simulation tolerance relaxed to achieve convergence from 1.3723251019915445e-06 to 1.3723251019925444e-06 seconds.
Warning: Simulation tolerance relaxed to achieve convergence from 1.3723251019925444e-06 to 1.3723251019935443e-06 seconds.
Warning: Simulation tolerance relaxed to achieve convergence from 1.3723251019935443e-06 to 1.3723251019945442e-06 seconds.
Warning: Simulation tolerance relaxed to achieve convergence from 1.3723251019945442e-06 to 1.3723251019955442e-06 seconds.
Warning: Simulation tolerance relaxed to achieve convergence from 1.3723251019955442e-06 to 1.3723251019965441e-06 seconds.
Warning: Simulation tolerance relaxed to achieve convergence from 1.3723251019965441e-06 to 1.3723251019975440e-06 seconds.
Warning: Simulation tolerance relaxed to achieve convergence from 1.3723251019975440e-06 to 1.3723251019985439e-06 seconds.
Warning: Simulation tolerance relaxed to achieve convergence from 1.3723251019985439e-06 to 1.3723251019995438e-06 seconds.
Warning: Simulation tolerance relaxed to achieve convergence from 1.3723251019995438e-06 to 1.3723251020005438e-06 seconds.
Warning: Simulation tolerance relaxed to achieve convergence from 1.3723251020005438e-06 to 1.3723251020015437e-06 seconds.
Warning: Simulation tolerance relaxed to achieve convergence from 1.3723251020015437e-06 to 1.3723251020025436e-06 seconds.
Warning: Simulation tolerance relaxed to achieve convergence from 1.3723251020025436e-06 to 1.3723251020035435e-06 seconds.
Warning: Simulation tolerance relaxed to achieve convergence from 1.3723251020035435e-06 to 1.3723251020045435e-06 seconds.
Warning: Simulation tolerance relaxed to achieve convergence from 1.3723251020045435e-06 to 1.3723251020055434e-06 seconds.
Warning: Simulation tolerance relaxed to achieve convergence from 1.3723251020055434e-06 to 1.3723251020065433e-06 seconds.
Warning: Simulation tolerance relaxed to achieve convergence from 1.3723251020065433e-06 to 1.3723251020075432e-06 seconds.
Warning: Simulation tolerance relaxed to achieve convergence from 1.3723251020075432e-06 to 1.3723251020085431e-06 seconds.
Warning: Simulation tolerance relaxed to achieve convergence from 1.3723251020085431e-06 to 1.3723251020095431e-06 seconds.
Warning: Simulation tolerance relaxed to achieve convergence from 1.3723251020095431e-06 to 1.3723251020105430e-06 seconds.
Warning: Simulation tolerance relaxed to achieve convergence from 1.3723251020105430e-06 to 1.3723251020115429e-06 seconds.
Warning: Simulation tolerance relaxed to achieve convergence from 1.3723251020115429e-06 to 1.3723251020125428e-06 seconds.
Warning: Simulation tolerance relaxed to achieve convergence from 1.3723251020125428e-06 to 1.3723251020135428e-06 seconds.
Warning: Simulation tolerance relaxed to achieve convergence from 1.3723251020135428e-06 to 1.3723251020145427e-06 seconds.
Warning: Simulation tolerance relaxed to achieve convergence from 1.3723251020145427e-06 to 1.3723251020155426e-06 seconds.
Warning: Simulation tolerance relaxed to achieve convergence from 1.3723251020155426e-06 to 1.3723251020165425e-06 seconds.
Warning: Simulation tolerance relaxed to achieve convergence from 1.3723251020165425e-06 to 1.3723251020175425e-06 seconds.
Warning: Simulation tolerance relaxed to achieve convergence from 1.3723251020175425e-06 to 1.3723251020185424e-06 seconds.
Warning: Simulation tolerance relaxed to achieve convergence from 1.3723251020185424e-06 to 1.3723251020195423e-06 seconds.
Warning: Simulation tolerance relaxed to achieve convergence from 1.3723251020195423e-06 to 1.3723251020205422e-06 seconds.
Warning: Simulation tolerance relaxed to achieve convergence from 1.3723251020205422e-06 to 1.3723251020215421e-06 seconds.
Warning: Simulation tolerance relaxed to achieve convergence from 1.3723251020215421e-06 to 1.3723251020225421e-06 seconds.
Warning: Simulation tolerance relaxed to achieve convergence from 1.3723251020225421e-06 to 1.3723251020235420e-06 seconds.
Warning: Simulation tolerance relaxed to achieve convergence from 1.3723251020235420e-06 to 1.3723251020245419e-06 seconds.
Warning: Simulation tolerance relaxed to achieve convergence from 1.3723251020245419e-06 to 1.3723251020255418e-06 seconds.
Warning: Simulation tolerance relaxed to achieve convergence from 1.3723251020255418e-06 to 1.3723251020265418e-06 seconds.
Warning: Simulation tolerance relaxed to achieve convergence from 1.3723251020265418e-06 to 1.3723251020275417e-06 seconds.
Warning: Simulation tolerance relaxed to achieve convergence from 1.3723251020275417e-06 to 1.3723251020285416e-06 seconds.
Warning: Simulation tolerance relaxed to achieve convergence from 1.3723251020285416e-06 to 1.3723251020295415e-06 seconds.
Warning: Simulation tolerance relaxed to achieve convergence from 1.3723251020295415e-06 to 1.3723251020305414e-06 seconds.
Warning: Simulation tolerance relaxed to achieve convergence from 1.3723251020305414e-06 to 1.3723251020315414e-06 seconds.
Warning: Simulation tolerance relaxed to achieve convergence from 1.3723251020315414e-06 to 1.3723251020325413e-06 seconds.
Warning: Simulation tolerance relaxed to achieve convergence from 1.3723251020325413e-06 to 1.3723251020335412e-06 seconds.
Warning: Simulation tolerance relaxed to achieve convergence from 1.3723251020335412e-06 to 1.3723251020345411e-06 seconds.
Warning: Simulation tolerance relaxed to achieve convergence from 1.3723251020345411e-06 to 1.3723251020355411e-06 seconds.
Warning: Simulation tolerance relaxed to achieve convergence from 1.3723251020355411e-06 to 1.3723251020365410e-06 seconds.
Warning: Simulation tolerance relaxed to achieve convergence from 1.3723251020365410e-06 to 1.3723251020375409e-06 seconds.
Warning: Simulation tolerance relaxed to achieve convergence from 1.3723251020375409e-06 to 1.3723251020385408e-06 seconds.
Warning: Simulation tolerance relaxed to achieve convergence from 1.3723251020385408e-06 to 1.3723251020395407e-06 seconds.
Warning: Simulation tolerance relaxed to achieve convergence from 1.3723251020395407e-06 to 1.3723251020405407e-06 seconds.
Warning: Simulation tolerance relaxed to achieve convergence from 1.3723251020405407e-06 to 1.3723251020415406e-06 seconds.
Warning: Simulation tolerance relaxed to achieve convergence from 1.3723251020415406e-06 to 1.3723251020425405e-06 seconds.
Warning: Simulation tolerance relaxed to achieve convergence from 1.3723251020425405e-06 to 1.3723251020435404e-06 seconds.
Warning: Simulation tolerance relaxed to achieve convergence from 1.3723251020435404e-06 to 1.3723251020445404e-06 seconds.
Warning: Simulation tolerance relaxed to achieve convergence from 1.3723251020445404e-06 to 1.3723251020455403e-06 seconds.
Warning: Simulation tolerance relaxed to achieve convergence from 1.3723251020455403e-06 to 1.3723251020465402e-06 seconds.
Warning: Simulation tolerance relaxed to achieve convergence from 1.3723251020465402e-06 to 1.3723251020475401e-06 seconds.
Warning: Simulation tolerance relaxed to achieve convergence from 1.3723251020475401e-06 to 1.3723251020485400e-06 seconds.
Warning: Simulation tolerance relaxed to achieve convergence from 1.3723251020485400e-06 to 1.3723251020495400e-06 seconds.
Warning: Simulation tolerance relaxed to achieve convergence from 1.3723251020495400e-06 to 1.3723251020505399e-06 seconds.
Warning: Simulation tolerance relaxed to achieve convergence from 1.3723251020505399e-06 to 1.3723251020515398e-06 seconds.
Warning: Simulation tolerance relaxed to achieve convergence from 1.3723251020515398e-06 to 1.3723251020525397e-06 seconds.
Warning: Simulation tolerance relaxed to achieve convergence from 1.3723251020525397e-06 to 1.3723251020535397e-06 seconds.
Warning: Simulation tolerance relaxed to achieve convergence from 1.3723251020535397e-06 to 1.3723251020545396e-06 seconds.
Warning: Simulation tolerance relaxed to achieve convergence from 1.3723251020545396e-06 to 1.3723251020555395e-06 seconds.
Warning: Simulation tolerance relaxed to achieve convergence from 1.3723251020555395e-06 to 1.3723251020565394e-06 seconds.
Warning: Simulation tolerance relaxed to achieve convergence from 1.3723251020565394e-06 to 1.3723251020575393e-06 seconds.
Warning: Simulation tolerance relaxed to achieve convergence from 1.3723251020575393e-06 to 1.3723251020585393e-06 seconds.
Warning: Simulation tolerance relaxed to achieve convergence from 1.3723251020585393e-06 to 1.3723251020595392e-06 seconds.
Warning: Simulation tolerance relaxed to achieve convergence from 1.3723251020595392e-06 to 1.3723251020605391e-06 seconds.
Warning: Simulation tolerance relaxed to achieve convergence from 1.3723251020605391e-06 to 1.3723251020615390e-06 seconds.
Warning: Simulation tolerance relaxed to achieve convergence from 1.3723251020615390e-06 to 1.3723251020625390e-06 seconds.
Warning: Simulation tolerance relaxed to achieve convergence from 1.3723251020625390e-06 to 1.3723251020635389e-06 seconds.
Warning: Simulation tolerance relaxed to achieve convergence from 1.3723251020635389e-06 to 1.3723251020645388e-06 seconds.
Warning: Simulation tolerance relaxed to achieve convergence from 1.3723251020645388e-06 to 1.3723251020655387e-06 seconds.
Warning: Simulation tolerance relaxed to achieve convergence from 1.3723251020655387e-06 to 1.3723251020665386e-06 seconds.
Warning: Simulation tolerance relaxed to achieve convergence from 1.3723251020665386e-06 to 1.3723251020675386e-06 seconds.
Warning: Simulation tolerance relaxed to achieve convergence from 1.3723251020675386e-06 to 1.3723251020685385e-06 seconds.
Warning: Simulation tolerance relaxed to achieve convergence from 1.3723251020685385e-06 to 1.3723251020695384e-06 seconds.
Warning: Simulation tolerance relaxed to achieve convergence from 1.3723251020695384e-06 to 1.3723251020705383e-06 seconds.
Warning: Simulation tolerance relaxed to achieve convergence from 1.3723251020705383e-06 to 1.3723251020715383e-06 seconds.
Warning: Simulation tolerance relaxed to achieve convergence from 1.3723251020715383e-06 to 1.3723251020725382e-06 seconds.
Warning: Simulation tolerance relaxed to achieve convergence from 1.3723251020725382e-06 to 1.3723251020735381e-06 seconds.
Warning: Simulation tolerance relaxed to achieve convergence from 1.3723251020735381e-06 to 1.3723251020745380e-06 seconds.
Warning: Simulation tolerance relaxed to achieve convergence from 1.3723251020745380e-06 to 1.3723251020755379e-06 seconds.
Warning: Simulation tolerance relaxed to achieve convergence from 1.3723251020755379e-06 to 1.3723251020765379e-06 seconds.
Warning: Simulation tolerance relaxed to achieve convergence from 1.3723251020765379e-06 to 1.3723251020775378e-06 seconds.
Warning: Simulation tolerance relaxed to achieve convergence from 1.3723251020775378e-06 to 1.3723251020785377e-06 seconds.
Warning: Simulation tolerance relaxed to achieve convergence from 1.3723251020785377e-06 to 1.3723251020795376e-06 seconds.
Warning: Simulation tolerance relaxed to achieve convergence from 1.3723251020795376e-06 to 1.3723251020805376e-06 seconds.
Warning: Simulation tolerance relaxed to achieve convergence from 1.3723251020805376e-06 to 1.3723251020815375e-06 seconds.
Warning: Simulation tolerance relaxed to achieve convergence from 1.3723251020815375e-06 to 1.3723251020825374e-06 seconds.
Warning: Simulation tolerance relaxed to achieve convergence from 1.3723251020825374e-06 to 1.3723251020835373e-06 seconds.
Warning: Simulation tolerance relaxed to achieve convergence from 1.3723251020835373e-06 to 1.3723251020845373e-06 seconds.
Warning: Simulation tolerance relaxed to achieve convergence from 1.3723251020845373e-06 to 1.3723251020855372e-06 seconds.
Warning: Simulation tolerance relaxed to achieve convergence from 1.3723251020855372e-06 to 1.3723251020865371e-06 seconds.
Warning: Simulation tolerance relaxed to achieve convergence from 1.3723251020865371e-06 to 1.3723251020875370e-06 seconds.
Warning: Simulation tolerance relaxed to achieve convergence from 1.3723251020875370e-06 to 1.3723251020885369e-06 seconds.
Warning: Simulation tolerance relaxed to achieve convergence from 1.3723251020885369e-06 to 1.3723251020895369e-06 seconds.
Warning: Simulation tolerance relaxed to achieve convergence from 1.3723251020895369e-06 to 1.3723251020905368e-06 seconds.
Warning: Simulation tolerance relaxed to achieve convergence from 1.3723251020905368e-06 to 1.3723251020915367e-06 seconds.
Warning: Simulation tolerance relaxed to achieve convergence from 1.3723251020915367e-06 to 1.3723251020925366e-06 seconds.
Warning: Simulation tolerance relaxed to achieve convergence from 1.3723251020925366e-06 to 1.3723251020935366e-06 seconds.
Warning: Simulation tolerance relaxed to achieve convergence from 1.3723251020935366e-06 to 1.3723251020945365e-06 seconds.
Warning: Simulation tolerance relaxed to achieve convergence from 1.3723251020945365e-06 to 1.3723251020955364e-06 seconds.
Warning: Simulation tolerance relaxed to achieve convergence from 1.3723251020955364e-06 to 1.3723251020965363e-06 seconds.
Warning: Simulation tolerance relaxed to achieve convergence from 1.3723251020965363e-06 to 1.3723251020975362e-06 seconds.
Warning: Simulation tolerance relaxed to achieve convergence from 1.3723251020975362e-06 to 1.3723251020985362e-06 seconds.
Warning: Simulation tolerance relaxed to achieve convergence from 1.3723251020985362e-06 to 1.3723251020995361e-06 seconds.
Warning: Simulation tolerance relaxed to achieve convergence from 1.3723251020995361e-06 to 1.3723251021005360e-06 seconds.
Warning: Simulation tolerance relaxed to achieve convergence from 1.3723251021005360e-06 to 1.3723251021015359e-06 seconds.
Warning: Simulation tolerance relaxed to achieve convergence from 1.3723251021015359e-06 to 1.3723251021025359e-06 seconds.
Warning: Simulation tolerance relaxed to achieve convergence from 1.3723251021025359e-06 to 1.3723251021035358e-06 seconds.
Warning: Simulation tolerance relaxed to achieve convergence from 1.3723251021035358e-06 to 1.3723251021045357e-06 seconds.
Warning: Simulation tolerance relaxed to achieve convergence from 1.3723251021045357e-06 to 1.3723251021055356e-06 seconds.
Warning: Simulation tolerance relaxed to achieve convergence from 1.3723251021055356e-06 to 1.3723251021065355e-06 seconds.
Warning: Simulation tolerance relaxed to achieve convergence from 1.3723251021065355e-06 to 1.3723251021075355e-06 seconds.
Warning: Simulation tolerance relaxed to achieve convergence from 1.3723251021075355e-06 to 1.3723251021085354e-06 seconds.
Warning: Simulation tolerance relaxed to achieve convergence from 1.3723251021085354e-06 to 1.3723251021095353e-06 seconds.
Warning: Simulation tolerance relaxed to achieve convergence from 1.3723251021095353e-06 to 1.3723251021105352e-06 seconds.
Warning: Simulation tolerance relaxed to achieve convergence from 1.3723251021105352e-06 to 1.3723251021115352e-06 seconds.
Warning: Simulation tolerance relaxed to achieve convergence from 1.3723251021115352e-06 to 1.3723251021125351e-06 seconds.
Warning: Simulation tolerance relaxed to achieve convergence from 1.3723251021125351e-06 to 1.3723251021135350e-06 seconds.
Warning: Simulation tolerance relaxed to achieve convergence from 1.3723251021135350e-06 to 1.3723251021145349e-06 seconds.
Warning: Simulation tolerance relaxed to achieve convergence from 1.3723251021145349e-06 to 1.3723251021155348e-06 seconds.
Warning: Simulation tolerance relaxed to achieve convergence from 1.3723251021155348e-06 to 1.3723251021165348e-06 seconds.
Warning: Simulation tolerance relaxed to achieve convergence from 1.3723251021165348e-06 to 1.3723251021175347e-06 seconds.
Warning: Simulation tolerance relaxed to achieve convergence from 1.3723251021175347e-06 to 1.3723251021185346e-06 seconds.
Warning: Simulation tolerance relaxed to achieve convergence from 1.3723251021185346e-06 to 1.3723251021195345e-06 seconds.
Warning: Simulation tolerance relaxed to achieve convergence from 1.3723251021195345e-06 to 1.3723251021205345e-06 seconds.
Warning: Simulation tolerance relaxed to achieve convergence from 1.3723251021205345e-06 to 1.3723251021215344e-06 seconds.
Warning: Simulation tolerance relaxed to achieve convergence from 1.3723251021215344e-06 to 1.3723251021225343e-06 seconds.
Warning: Simulation tolerance relaxed to achieve convergence from 1.3723251021225343e-06 to 1.3723251021235342e-06 seconds.
Warning: Simulation tolerance relaxed to achieve convergence from 1.3723251021235342e-06 to 1.3723251021245341e-06 seconds.
Warning: Simulation tolerance relaxed to achieve convergence from 1.3723251021245341e-06 to 1.3723251021255341e-06 seconds.
Warning: Simulation tolerance relaxed to achieve convergence from 1.3723251021255341e-06 to 1.3723251021265340e-06 seconds.
Warning: Simulation tolerance relaxed to achieve convergence from 1.3723251021265340e-06 to 1.3723251021275339e-06 seconds.
Warning: Simulation tolerance relaxed to achieve convergence from 1.3723251021275339e-06 to 1.3723251021285338e-06 seconds.
Warning: Simulation tolerance relaxed to achieve convergence from 1.3723251021285338e-06 to 1.3723251021295338e-06 seconds.
Warning: Simulation tolerance relaxed to achieve convergence from 1.3723251021295338e-06 to 1.3723251021305337e-06 seconds.
Warning: Simulation tolerance relaxed to achieve convergence from 1.3723251021305337e-06 to 1.3723251021315336e-06 seconds.
Warning: Simulation tolerance relaxed to achieve convergence from 1.3723251021315336e-06 to 1.3723251021325335e-06 seconds.
Warning: Simulation tolerance relaxed to achieve convergence from 1.3723251021325335e-06 to 1.3723251021335334e-06 seconds.
Warning: Simulation tolerance relaxed to achieve convergence from 1.3723251021335334e-06 to 1.3723251021345334e-06 seconds.
Warning: Simulation tolerance relaxed to achieve convergence from 1.3723251021345334e-06 to 1.3723251021355333e-06 seconds.
Warning: Simulation tolerance relaxed to achieve convergence from 1.3723251021355333e-06 to 1.3723251021365332e-06 seconds.
Warning: Simulation tolerance relaxed to achieve convergence from 1.3723251021365332e-06 to 1.3723251021375331e-06 seconds.
Warning: Simulation tolerance relaxed to achieve convergence from 1.3723251021375331e-06 to 1.3723251021385331e-06 seconds.
Warning: Simulation tolerance relaxed to achieve convergence from 1.3723251021385331e-06 to 1.3723251021395330e-06 seconds.
Warning: Simulation tolerance relaxed to achieve convergence from 1.3723251021395330e-06 to 1.3723251021405329e-06 seconds.
Warning: Simulation tolerance relaxed to achieve convergence from 1.3723251021405329e-06 to 1.3723251021415328e-06 seconds.
Warning: Simulation tolerance relaxed to achieve convergence from 1.3723251021415328e-06 to 1.3723251021425327e-06 seconds.
Warning: Simulation tolerance relaxed to achieve convergence from 1.3723251021425327e-06 to 1.3723251021435327e-06 seconds.
Warning: Simulation tolerance relaxed to achieve convergence from 1.3723251021435327e-06 to 1.3723251021445326e-06 seconds.
Warning: Simulation tolerance relaxed to achieve convergence from 1.3723251021445326e-06 to 1.3723251021455325e-06 seconds.
Warning: Simulation tolerance relaxed to achieve convergence from 1.3723251021455325e-06 to 1.3723251021465324e-06 seconds.
Warning: Simulation tolerance relaxed to achieve convergence from 1.3723251021465324e-06 to 1.3723251021475324e-06 seconds.
Warning: Simulation tolerance relaxed to achieve convergence from 1.3723251021475324e-06 to 1.3723251021485323e-06 seconds.
Warning: Simulation tolerance relaxed to achieve convergence from 1.3723251021485323e-06 to 1.3723251021495322e-06 seconds.
Warning: Simulation tolerance relaxed to achieve convergence from 1.3723251021495322e-06 to 1.3723251021505321e-06 seconds.
Warning: Simulation tolerance relaxed to achieve convergence from 1.3723251021505321e-06 to 1.3723251021515321e-06 seconds.
Warning: Simulation tolerance relaxed to achieve convergence from 1.3723251021515321e-06 to 1.3723251021525320e-06 seconds.
Warning: Simulation tolerance relaxed to achieve convergence from 1.3723251021525320e-06 to 1.3723251021535319e-06 seconds.
Warning: Simulation tolerance relaxed to achieve convergence from 1.3723251021535319e-06 to 1.3723251021545318e-06 seconds.
Warning: Simulation tolerance relaxed to achieve convergence from 1.3723251021545318e-06 to 1.3723251021555317e-06 seconds.
Warning: Simulation tolerance relaxed to achieve convergence from 1.3723251021555317e-06 to 1.3723251021565317e-06 seconds.
Warning: Simulation tolerance relaxed to achieve convergence from 1.3723251021565317e-06 to 1.3723251021575316e-06 seconds.
Warning: Simulation tolerance relaxed to achieve convergence from 1.3723251021575316e-06 to 1.3723251021585315e-06 seconds.
Warning: Simulation tolerance relaxed to achieve convergence from 1.3723251021585315e-06 to 1.3723251021595314e-06 seconds.
Warning: Simulation tolerance relaxed to achieve convergence from 1.3723251021595314e-06 to 1.3723251021605314e-06 seconds.
Warning: Simulation tolerance relaxed to achieve convergence from 1.3723251021605314e-06 to 1.3723251021615313e-06 seconds.
Warning: Simulation tolerance relaxed to achieve convergence from 1.3723251021615313e-06 to 1.3723251021625312e-06 seconds.
Warning: Simulation tolerance relaxed to achieve convergence from 1.3723251021625312e-06 to 1.3723251021635311e-06 seconds.
Warning: Simulation tolerance relaxed to achieve convergence from 1.3723251021635311e-06 to 1.3723251021645310e-06 seconds.
Warning: Simulation tolerance relaxed to achieve convergence from 1.3723251021645310e-06 to 1.3723251021655310e-06 seconds.
Warning: Simulation tolerance relaxed to achieve convergence from 1.3723251021655310e-06 to 1.3723251021665309e-06 seconds.
Warning: Simulation tolerance relaxed to achieve convergence from 1.3723251021665309e-06 to 1.3723251021675308e-06 seconds.
Warning: Simulation tolerance relaxed to achieve convergence from 1.3723251021675308e-06 to 1.3723251021685307e-06 seconds.
Warning: Simulation tolerance relaxed to achieve convergence from 1.3723251021685307e-06 to 1.3723251021695307e-06 seconds.
Warning: Simulation tolerance relaxed to achieve convergence from 1.3723251021695307e-06 to 1.3723251021705306e-06 seconds.
Warning: Simulation tolerance relaxed to achieve convergence from 1.3723251021705306e-06 to 1.3723251021715305e-06 seconds.
Warning: Simulation tolerance relaxed to achieve convergence from 1.3723251021715305e-06 to 1.3723251021725304e-06 seconds.
Warning: Simulation tolerance relaxed to achieve convergence from 1.3723251021725304e-06 to 1.3723251021735303e-06 seconds.
Warning: Simulation tolerance relaxed to achieve convergence from 1.3723251021735303e-06 to 1.3723251021745303e-06 seconds.
Warning: Simulation tolerance relaxed to achieve convergence from 1.3723251021745303e-06 to 1.3723251021755302e-06 seconds.
Warning: Simulation tolerance relaxed to achieve convergence from 1.3723251021755302e-06 to 1.3723251021765301e-06 seconds.
Warning: Simulation tolerance relaxed to achieve convergence from 1.3723251021765301e-06 to 1.3723251021775300e-06 seconds.
Warning: Simulation tolerance relaxed to achieve convergence from 1.3723251021775300e-06 to 1.3723251021785300e-06 seconds.
Warning: Simulation tolerance relaxed to achieve convergence from 1.3723251021785300e-06 to 1.3723251021795299e-06 seconds.
Warning: Simulation tolerance relaxed to achieve convergence from 1.3723251021795299e-06 to 1.3723251021805298e-06 seconds.
Warning: Simulation tolerance relaxed to achieve convergence from 1.3723251021805298e-06 to 1.3723251021815297e-06 seconds.
Warning: Simulation tolerance relaxed to achieve convergence from 1.3723251021815297e-06 to 1.3723251021825296e-06 seconds.
Warning: Simulation tolerance relaxed to achieve convergence from 1.3723251021825296e-06 to 1.3723251021835296e-06 seconds.
Warning: Simulation tolerance relaxed to achieve convergence from 1.3723251021835296e-06 to 1.3723251021845295e-06 seconds.
Warning: Simulation tolerance relaxed to achieve convergence from 1.3723251021845295e-06 to 1.3723251021855294e-06 seconds.
Warning: Simulation tolerance relaxed to achieve convergence from 1.3723251021855294e-06 to 1.3723251021865293e-06 seconds.
Warning: Simulation tolerance relaxed to achieve convergence from 1.3723251021865293e-06 to 1.3723251021875293e-06 seconds.
Warning: Simulation tolerance relaxed to achieve convergence from 1.3723251021875293e-06 to 1.3723251021885292e-06 seconds.
Warning: Simulation tolerance relaxed to achieve convergence from 1.3723251021885292e-06 to 1.3723251021895291e-06 seconds.
Warning: Simulation tolerance relaxed to achieve convergence from 1.3723251021895291e-06 to 1.3723251021905290e-06 seconds.
Warning: Simulation tolerance relaxed to achieve convergence from 1.3723251021905290e-06 to 1.3723251021915289e-06 seconds.
Warning: Simulation tolerance relaxed to achieve convergence from 1.3723251021915289e-06 to 1.3723251021925289e-06 seconds.
Warning: Simulation tolerance relaxed to achieve convergence from 1.3723251021925289e-06 to 1.3723251021935288e-06 seconds.
Warning: Simulation tolerance relaxed to achieve convergence from 1.3723251021935288e-06 to 1.3723251021945287e-06 seconds.
Warning: Simulation tolerance relaxed to achieve convergence from 1.3723251021945287e-06 to 1.3723251021955286e-06 seconds.
Warning: Simulation tolerance relaxed to achieve convergence from 1.3723251021955286e-06 to 1.3723251021965286e-06 seconds.
Warning: Simulation tolerance relaxed to achieve convergence from 1.3723251021965286e-06 to 1.3723251021975285e-06 seconds.
Warning: Simulation tolerance relaxed to achieve convergence from 1.3723251021975285e-06 to 1.3723251021985284e-06 seconds.
Warning: Simulation tolerance relaxed to achieve convergence from 1.3723251021985284e-06 to 1.3723251021995283e-06 seconds.
Warning: Simulation tolerance relaxed to achieve convergence from 1.3723251021995283e-06 to 1.3723251022005282e-06 seconds.
Warning: Simulation tolerance relaxed to achieve convergence from 1.3723251022005282e-06 to 1.3723251022015282e-06 seconds.
Warning: Simulation tolerance relaxed to achieve convergence from 1.3723251022015282e-06 to 1.3723251022025281e-06 seconds.
Warning: Simulation tolerance relaxed to achieve convergence from 1.3723251022025281e-06 to 1.3723251022035280e-06 seconds.
Warning: Simulation tolerance relaxed to achieve convergence from 1.3723251022035280e-06 to 1.3723251022045279e-06 seconds.
Warning: Simulation tolerance relaxed to achieve convergence from 1.3723251022045279e-06 to 1.3723251022055279e-06 seconds.
Warning: Simulation tolerance relaxed to achieve convergence from 1.3723251022055279e-06 to 1.3723251022065278e-06 seconds.
Warning: Simulation tolerance relaxed to achieve convergence from 1.3723251022065278e-06 to 1.3723251022075277e-06 seconds.
Warning: Simulation tolerance relaxed to achieve convergence from 1.3723251022075277e-06 to 1.3723251022085276e-06 seconds.
Warning: Simulation tolerance relaxed to achieve convergence from 1.3723251022085276e-06 to 1.3723251022095276e-06 seconds.
Warning: Simulation tolerance relaxed to achieve convergence from 1.3723251022095276e-06 to 1.3723251022105275e-06 seconds.
Warning: Simulation tolerance relaxed to achieve convergence from 1.3723251022105275e-06 to 1.3723251022115274e-06 seconds.
Warning: Simulation tolerance relaxed to achieve convergence from 1.3723251022115274e-06 to 1.3723251022125273e-06 seconds.
Warning: Simulation tolerance relaxed to achieve convergence from 1.3723251022125273e-06 to 1.3723251022135272e-06 seconds.
Warning: Simulation tolerance relaxed to achieve convergence from 1.3723251022135272e-06 to 1.3723251022145272e-06 seconds.
Warning: Simulation tolerance relaxed to achieve convergence from 1.3723251022145272e-06 to 1.3723251022155271e-06 seconds.
Warning: Simulation tolerance relaxed to achieve convergence from 1.3723251022155271e-06 to 1.3723251022165270e-06 seconds.
Warning: Simulation tolerance relaxed to achieve convergence from 1.3723251022165270e-06 to 1.3723251022175269e-06 seconds.
Warning: Simulation tolerance relaxed to achieve convergence from 1.3723251022175269e-06 to 1.3723251022185269e-06 seconds.
Warning: Simulation tolerance relaxed to achieve convergence from 1.3723251022185269e-06 to 1.3723251022195268e-06 seconds.
Warning: Simulation tolerance relaxed to achieve convergence from 1.3723251022195268e-06 to 1.3723251022205267e-06 seconds.
Warning: Simulation tolerance relaxed to achieve convergence from 1.3723251022205267e-06 to 1.3723251022215266e-06 seconds.
Warning: Simulation tolerance relaxed to achieve convergence from 1.3723251022215266e-06 to 1.3723251022225265e-06 seconds.
Warning: Simulation tolerance relaxed to achieve convergence from 1.3723251022225265e-06 to 1.3723251022235265e-06 seconds.
Warning: Simulation tolerance relaxed to achieve convergence from 1.3723251022235265e-06 to 1.3723251022245264e-06 seconds.
Warning: Simulation tolerance relaxed to achieve convergence from 1.3723251022245264e-06 to 1.3723251022255263e-06 seconds.
Warning: Simulation tolerance relaxed to achieve convergence from 1.3723251022255263e-06 to 1.3723251022265262e-06 seconds.
Warning: Simulation tolerance relaxed to achieve convergence from 1.3723251022265262e-06 to 1.3723251022275262e-06 seconds.
Warning: Simulation tolerance relaxed to achieve convergence from 1.3723251022275262e-06 to 1.3723251022285261e-06 seconds.
Warning: Simulation tolerance relaxed to achieve convergence from 1.3723251022285261e-06 to 1.3723251022295260e-06 seconds.
Warning: Simulation tolerance relaxed to achieve convergence from 1.3723251022295260e-06 to 1.3723251022305259e-06 seconds.
Warning: Simulation tolerance relaxed to achieve convergence from 1.3723251022305259e-06 to 1.3723251022315258e-06 seconds.
Warning: Simulation tolerance relaxed to achieve convergence from 1.3723251022315258e-06 to 1.3723251022325258e-06 seconds.
Warning: Simulation tolerance relaxed to achieve convergence from 1.3723251022325258e-06 to 1.3723251022335257e-06 seconds.
Warning: Simulation tolerance relaxed to achieve convergence from 1.3723251022335257e-06 to 1.3723251022345256e-06 seconds.
Warning: Simulation tolerance relaxed to achieve convergence from 1.3723251022345256e-06 to 1.3723251022355255e-06 seconds.
Warning: Simulation tolerance relaxed to achieve convergence from 1.3723251022355255e-06 to 1.3723251022365255e-06 seconds.
Warning: Simulation tolerance relaxed to achieve convergence from 1.3723251022365255e-06 to 1.3723251022375254e-06 seconds.
Warning: Simulation tolerance relaxed to achieve convergence from 1.3723251022375254e-06 to 1.3723251022385253e-06 seconds.
Warning: Simulation tolerance relaxed to achieve convergence from 1.3723251022385253e-06 to 1.3723251022395252e-06 seconds.
Warning: Simulation tolerance relaxed to achieve convergence from 1.3723251022395252e-06 to 1.3723251022405251e-06 seconds.
Warning: Simulation tolerance relaxed to achieve convergence from 1.3723251022405251e-06 to 1.3723251022415251e-06 seconds.
Warning: Simulation tolerance relaxed to achieve convergence from 1.3723251022415251e-06 to 1.3723251022425250e-06 seconds.
Warning: Simulation tolerance relaxed to achieve convergence from 1.3723251022425250e-06 to 1.3723251022435249e-06 seconds.
Warning: Simulation tolerance relaxed to achieve convergence from 1.3723251022435249e-06 to 1.3723251022445248e-06 seconds.
Warning: Simulation tolerance relaxed to achieve convergence from 1.3723251022445248e-06 to 1.3723251022455248e-06 seconds.
Warning: Simulation tolerance relaxed to achieve convergence from 1.3723251022455248e-06 to 1.3723251022465247e-06 seconds.
Warning: Simulation tolerance relaxed to achieve convergence from 1.3723251022465247e-06 to 1.3723251022475246e-06 seconds.
Warning: Simulation tolerance relaxed to achieve convergence from 1.3723251022475246e-06 to 1.3723251022485245e-06 seconds.
Warning: Simulation tolerance relaxed to achieve convergence from 1.3723251022485245e-06 to 1.3723251022495244e-06 seconds.
Warning: Simulation tolerance relaxed to achieve convergence from 1.3723251022495244e-06 to 1.3723251022505244e-06 seconds.
Warning: Simulation tolerance relaxed to achieve convergence from 1.3723251022505244e-06 to 1.3723251022515243e-06 seconds.
Warning: Simulation tolerance relaxed to achieve convergence from 1.3723251022515243e-06 to 1.3723251022525242e-06 seconds.
Warning: Simulation tolerance relaxed to achieve convergence from 1.3723251022525242e-06 to 1.3723251022535241e-06 seconds.
Warning: Simulation tolerance relaxed to achieve convergence from 1.3723251022535241e-06 to 1.3723251022545241e-06 seconds.
Warning: Simulation tolerance relaxed to achieve convergence from 1.3723251022545241e-06 to 1.3723251022555240e-06 seconds.
Warning: Simulation tolerance relaxed to achieve convergence from 1.3723251022555240e-06 to 1.3723251022565239e-06 seconds.
Warning: Simulation tolerance relaxed to achieve convergence from 1.3723251022565239e-06 to 1.3723251022575238e-06 seconds.
Warning: Simulation tolerance relaxed to achieve convergence from 1.3723251022575238e-06 to 1.3723251022585237e-06 seconds.
Warning: Simulation tolerance relaxed to achieve convergence from 1.3723251022585237e-06 to 1.3723251022595237e-06 seconds.
Warning: Simulation tolerance relaxed to achieve convergence from 1.3723251022595237e-06 to 1.3723251022605236e-06 seconds.
Warning: Simulation tolerance relaxed to achieve convergence from 1.3723251022605236e-06 to 1.3723251022615235e-06 seconds.
Warning: Simulation tolerance relaxed to achieve convergence from 1.3723251022615235e-06 to 1.3723251022625234e-06 seconds.
Warning: Simulation tolerance relaxed to achieve convergence from 1.3723251022625234e-06 to 1.3723251022635234e-06 seconds.
Warning: Simulation tolerance relaxed to achieve convergence from 1.3723251022635234e-06 to 1.3723251022645233e-06 seconds.
Warning: Simulation tolerance relaxed to achieve convergence from 1.3723251022645233e-06 to 1.3723251022655232e-06 seconds.
Warning: Simulation tolerance relaxed to achieve convergence from 1.3723251022655232e-06 to 1.3723251022665231e-06 seconds.
Warning: Simulation tolerance relaxed to achieve convergence from 1.3723251022665231e-06 to 1.3723251022675230e-06 seconds.
Warning: Simulation tolerance relaxed to achieve convergence from 1.3723251022675230e-06 to 1.3723251022685230e-06 seconds.
Warning: Simulation tolerance relaxed to achieve convergence from 1.3723251022685230e-06 to 1.3723251022695229e-06 seconds.
Warning: Simulation tolerance relaxed to achieve convergence from 1.3723251022695229e-06 to 1.3723251022705228e-06 seconds.
Warning: Simulation tolerance relaxed to achieve convergence from 1.3723251022705228e-06 to 1.3723251022715227e-06 seconds.
Warning: Simulation tolerance relaxed to achieve convergence from 1.3723251022715227e-06 to 1.3723251022725227e-06 seconds.
Warning: Simulation tolerance relaxed to achieve convergence from 1.3723251022725227e-06 to 1.3723251022735226e-06 seconds.
Warning: Simulation tolerance relaxed to achieve convergence from 1.3723251022735226e-06 to 1.3723251022745225e-06 seconds.
Warning: Simulation tolerance relaxed to achieve convergence from 1.3723251022745225e-06 to 1.3723251022755224e-06 seconds.
Warning: Simulation tolerance relaxed to achieve convergence from 1.3723251022755224e-06 to 1.3723251022765224e-06 seconds.
Warning: Simulation tolerance relaxed to achieve convergence from 1.3723251022765224e-06 to 1.3723251022775223e-06 seconds.
Warning: Simulation tolerance relaxed to achieve convergence from 1.3723251022775223e-06 to 1.3723251022785222e-06 seconds.
Warning: Simulation tolerance relaxed to achieve convergence from 1.3723251022785222e-06 to 1.3723251022795221e-06 seconds.
Warning: Simulation tolerance relaxed to achieve convergence from 1.3723251022795221e-06 to 1.3723251022805220e-06 seconds.
Warning: Simulation tolerance relaxed to achieve convergence from 1.3723251022805220e-06 to 1.3723251022815220e-06 seconds.
Warning: Simulation tolerance relaxed to achieve convergence from 1.3723251022815220e-06 to 1.3723251022825219e-06 seconds.
Warning: Simulation tolerance relaxed to achieve convergence from 1.3723251022825219e-06 to 1.3723251022835218e-06 seconds.
Warning: Simulation tolerance relaxed to achieve convergence from 1.3723251022835218e-06 to 1.3723251022845217e-06 seconds.
Warning: Simulation tolerance relaxed to achieve convergence from 1.3723251022845217e-06 to 1.3723251022855217e-06 seconds.
Warning: Simulation tolerance relaxed to achieve convergence from 1.3723251022855217e-06 to 1.3723251022865216e-06 seconds.
Warning: Simulation tolerance relaxed to achieve convergence from 1.3723251022865216e-06 to 1.3723251022875215e-06 seconds.
Warning: Simulation tolerance relaxed to achieve convergence from 1.3723251022875215e-06 to 1.3723251022885214e-06 seconds.
Warning: Simulation tolerance relaxed to achieve convergence from 1.3723251022885214e-06 to 1.3723251022895213e-06 seconds.
Warning: Simulation tolerance relaxed to achieve convergence from 1.3723251022895213e-06 to 1.3723251022905213e-06 seconds.
Warning: Simulation tolerance relaxed to achieve convergence from 1.3723251022905213e-06 to 1.3723251022915212e-06 seconds.
Warning: Simulation tolerance relaxed to achieve convergence from 1.3723251022915212e-06 to 1.3723251022925211e-06 seconds.
Warning: Simulation tolerance relaxed to achieve convergence from 1.3723251022925211e-06 to 1.3723251022935210e-06 seconds.
Warning: Simulation tolerance relaxed to achieve convergence from 1.3723251022935210e-06 to 1.3723251022945210e-06 seconds.
Warning: Simulation tolerance relaxed to achieve convergence from 1.3723251022945210e-06 to 1.3723251022955209e-06 seconds.
Warning: Simulation tolerance relaxed to achieve convergence from 1.3723251022955209e-06 to 1.3723251022965208e-06 seconds.
Warning: Simulation tolerance relaxed to achieve convergence from 1.3723251022965208e-06 to 1.3723251022975207e-06 seconds.
Warning: Simulation tolerance relaxed to achieve convergence from 1.3723251022975207e-06 to 1.3723251022985206e-06 seconds.
Warning: Simulation tolerance relaxed to achieve convergence from 1.3723251022985206e-06 to 1.3723251022995206e-06 seconds.
Warning: Simulation tolerance relaxed to achieve convergence from 1.3723251022995206e-06 to 1.3723251023005205e-06 seconds.
Warning: Simulation tolerance relaxed to achieve convergence from 1.3723251023005205e-06 to 1.3723251023015204e-06 seconds.
Warning: Simulation tolerance relaxed to achieve convergence from 1.3723251023015204e-06 to 1.3723251023025203e-06 seconds.
Warning: Simulation tolerance relaxed to achieve convergence from 1.3723251023025203e-06 to 1.3723251023035203e-06 seconds.
Warning: Simulation tolerance relaxed to achieve convergence from 1.3723251023035203e-06 to 1.3723251023045202e-06 seconds.
Warning: Simulation tolerance relaxed to achieve convergence from 1.3723251023045202e-06 to 1.3723251023055201e-06 seconds.
Warning: Simulation tolerance relaxed to achieve convergence from 1.3723251023055201e-06 to 1.3723251023065200e-06 seconds.
Warning: Simulation tolerance relaxed to achieve convergence from 1.3723251023065200e-06 to 1.3723251023075199e-06 seconds.
Warning: Simulation tolerance relaxed to achieve convergence from 1.3723251023075199e-06 to 1.3723251023085199e-06 seconds.
Warning: Simulation tolerance relaxed to achieve convergence from 1.3723251023085199e-06 to 1.3723251023095198e-06 seconds.
Warning: Simulation tolerance relaxed to achieve convergence from 1.3723251023095198e-06 to 1.3723251023105197e-06 seconds.
[...]
Warning: Simulation tolerance relaxed to achieve convergence from 1.3723251027164882e-06 to 1.3723251027174881e-06 seconds.
Warning: Simulation tolerance relaxed to achieve convergence from 1.3723251027174881e-06 to 1.3723251027184880e-06 seconds.
Warning: Simulation tolerance relaxed to achieve convergence from 1.3723251027184880e-06 to 1.3723251027194880e-06 seconds.
Warning: Simulation tolerance relaxed to achieve convergence from 1.3723251027194880e-06 to 1.3723251027204879e-06 seconds.
Warning: Simulation tolerance relaxed to achieve convergence from 1.3723251027204879e-06 to 1.3723251027214878e-06 seconds.
Warning: Simulation tolerance relaxed to achieve convergence from 1.3723251027214878e-06 to 1.3723251027224877e-06 seconds.
Warning: Simulation tolerance relaxed to achieve convergence from 1.3723251027224877e-06 to 1.3723251027234877e-06 seconds.
Warning: Simulation tolerance relaxed to achieve convergence from 1.3723251027234877e-06 to 1.3723251027244876e-06 seconds.
Warning: Simulation tolerance relaxed to achieve convergence from 1.3723251027244876e-06 to 1.3723251027254875e-06 seconds.
Warning: Simulation tolerance relaxed to achieve convergence from 1.3723251027254875e-06 to 1.3723251027264874e-06 seconds.
Warning: Simulation tolerance relaxed to achieve convergence from 1.3723251027264874e-06 to 1.3723251027274874e-06 seconds.
Warning: Simulation tolerance relaxed to achieve convergence from 1.3723251027274874e-06 to 1.3723251027284873e-06 seconds.
Warning: Simulation tolerance relaxed to achieve convergence from 1.3723251027284873e-06 to 1.3723251027294872e-06 seconds.
Warning: Simulation tolerance relaxed to achieve convergence from 1.3723251027294872e-06 to 1.3723251027304871e-06 seconds.
Warning: Simulation tolerance relaxed to achieve convergence from 1.3723251027304871e-06 to 1.3723251027314870e-06 seconds.
Warning: Simulation tolerance relaxed to achieve convergence from 1.3723251027314870e-06 to 1.3723251027324870e-06 seconds.
Warning: Simulation tolerance relaxed to achieve convergence from 1.3723251027324870e-06 to 1.3723251027334869e-06 seconds.
Warning: Simulation tolerance relaxed to achieve convergence from 1.3723251027334869e-06 to 1.3723251027344868e-06 seconds.
Warning: Simulation tolerance relaxed to achieve convergence from 1.3723251027344868e-06 to 1.3723251027354867e-06 seconds.
Warning: Simulation tolerance relaxed to achieve convergence from 1.3723251027354867e-06 to 1.3723251027364867e-06 seconds.
Warning: Simulation tolerance relaxed to achieve convergence from 1.3723251027364867e-06 to 1.3723251027374866e-06 seconds.
Warning: Simulation tolerance relaxed to achieve convergence from 1.3723251027374866e-06 to 1.3723251027384865e-06 seconds.
Warning: Simulation tolerance relaxed to achieve convergence from 1.3723251027384865e-06 to 1.3723251027394864e-06 seconds.
Warning: Simulation tolerance relaxed to achieve convergence from 1.3723251027394864e-06 to 1.3723251027404863e-06 seconds.
Warning: Simulation tolerance relaxed to achieve convergence from 1.3723251027404863e-06 to 1.3723251027414863e-06 seconds.
Warning: Simulation tolerance relaxed to achieve convergence from 1.3723251027414863e-06 to 1.3723251027424862e-06 seconds.
Warning: Simulation tolerance relaxed to achieve convergence from 1.3723251027424862e-06 to 1.3723251027434861e-06 seconds.
Warning: Simulation tolerance relaxed to achieve convergence from 1.3723251027434861e-06 to 1.3723251027444860e-06 seconds.
Warning: Simulation tolerance relaxed to achieve convergence from 1.3723251027444860e-06 to 1.3723251027454860e-06 seconds.
Warning: Simulation tolerance relaxed to achieve convergence from 1.3723251027454860e-06 to 1.3723251027464859e-06 seconds.
Warning: Simulation tolerance relaxed to achieve convergence from 1.3723251027464859e-06 to 1.3723251027474858e-06 seconds.
Warning: Simulation tolerance relaxed to achieve convergence from 1.3723251027474858e-06 to 1.3723251027484857e-06 seconds.
Warning: Simulation tolerance relaxed to achieve convergence from 1.3723251027484857e-06 to 1.3723251027494856e-06 seconds.
Warning: Simulation tolerance relaxed to achieve convergence from 1.3723251027494856e-06 to 1.3723251027504856e-06 seconds.
Warning: Simulation tolerance relaxed to achieve convergence from 1.3723251027504856e-06 to 1.3723251027514855e-06 seconds.
Warning: Simulation tolerance relaxed to achieve convergence from 1.3723251027514855e-06 to 1.3723251027524854e-06 seconds.
Warning: Simulation tolerance relaxed to achieve convergence from 1.3723251027524854e-06 to 1.3723251027534853e-06 seconds.
Warning: Simulation tolerance relaxed to achieve convergence from 1.3723251027534853e-06 to 1.3723251027544853e-06 seconds.
Warning: Simulation tolerance relaxed to achieve convergence from 1.3723251027544853e-06 to 1.3723251027554852e-06 seconds.
Warning: Simulation tolerance relaxed to achieve convergence from 1.3723251027554852e-06 to 1.3723251027564851e-06 seconds.
Warning: Simulation tolerance relaxed to achieve convergence from 1.3723251027564851e-06 to 1.3723251027574850e-06 seconds.
Warning: Simulation tolerance relaxed to achieve convergence from 1.3723251027574850e-06 to 1.3723251027584849e-06 seconds.
Warning: Simulation tolerance relaxed to achieve convergence from 1.3723251027584849e-06 to 1.3723251027594849e-06 seconds.
Warning: Simulation tolerance relaxed to achieve convergence from 1.3723251027594849e-06 to 1.3723251027604848e-06 seconds.
Warning: Simulation tolerance relaxed to achieve convergence from 1.3723251027604848e-06 to 1.3723251027614847e-06 seconds.
Warning: Simulation tolerance relaxed to achieve convergence from 1.3723251027614847e-06 to 1.3723251027624846e-06 seconds.
Warning: Simulation tolerance relaxed to achieve convergence from 1.3723251027624846e-06 to 1.3723251027634846e-06 seconds.
Warning: Simulation tolerance relaxed to achieve convergence from 1.3723251027634846e-06 to 1.3723251027644845e-06 seconds.
Warning: Simulation tolerance relaxed to achieve convergence from 1.3723251027644845e-06 to 1.3723251027654844e-06 seconds.
Warning: Simulation tolerance relaxed to achieve convergence from 1.3723251027654844e-06 to 1.3723251027664843e-06 seconds.
Warning: Simulation tolerance relaxed to achieve convergence from 1.3723251027664843e-06 to 1.3723251027674842e-06 seconds.
Warning: Simulation tolerance relaxed to achieve convergence from 1.3723251027674842e-06 to 1.3723251027684842e-06 seconds.
Warning: Simulation tolerance relaxed to achieve convergence from 1.3723251027684842e-06 to 1.3723251027694841e-06 seconds.
Warning: Simulation tolerance relaxed to achieve convergence from 1.3723251027694841e-06 to 1.3723251027704840e-06 seconds.
Warning: Simulation tolerance relaxed to achieve convergence from 1.3723251027704840e-06 to 1.3723251027714839e-06 seconds.
Warning: Simulation tolerance relaxed to achieve convergence from 1.3723251027714839e-06 to 1.3723251027724839e-06 seconds.
Warning: Simulation tolerance relaxed to achieve convergence from 1.3723251027724839e-06 to 1.3723251027734838e-06 seconds.
Warning: Simulation tolerance relaxed to achieve convergence from 1.3723251027734838e-06 to 1.3723251027744837e-06 seconds.
Warning: Simulation tolerance relaxed to achieve convergence from 1.3723251027744837e-06 to 1.3723251027754836e-06 seconds.
Warning: Simulation tolerance relaxed to achieve convergence from 1.3723251027754836e-06 to 1.3723251027764835e-06 seconds.
Warning: Simulation tolerance relaxed to achieve convergence from 1.3723251027764835e-06 to 1.3723251027774835e-06 seconds.
Warning: Simulation tolerance relaxed to achieve convergence from 1.3723251027774835e-06 to 1.3723251027784834e-06 seconds.
Warning: Simulation tolerance relaxed to achieve convergence from 1.3723251027784834e-06 to 1.3723251027794833e-06 seconds.
Warning: Simulation tolerance relaxed to achieve convergence from 1.3723251027794833e-06 to 1.3723251027804832e-06 seconds.
Warning: Simulation tolerance relaxed to achieve convergence from 1.3723251027804832e-06 to 1.3723251027814832e-06 seconds.
Warning: Simulation tolerance relaxed to achieve convergence from 1.3723251027814832e-06 to 1.3723251027824831e-06 seconds.
Warning: Simulation tolerance relaxed to achieve convergence from 1.3723251027824831e-06 to 1.3723251027834830e-06 seconds.
Warning: Simulation tolerance relaxed to achieve convergence from 1.3723251027834830e-06 to 1.3723251027844829e-06 seconds.
Warning: Simulation tolerance relaxed to achieve convergence from 1.3723251027844829e-06 to 1.3723251027854828e-06 seconds.
Warning: Simulation tolerance relaxed to achieve convergence from 1.3723251027854828e-06 to 1.3723251027864828e-06 seconds.
Warning: Simulation tolerance relaxed to achieve convergence from 1.3723251027864828e-06 to 1.3723251027874827e-06 seconds.
Warning: Simulation tolerance relaxed to achieve convergence from 1.3723251027874827e-06 to 1.3723251027884826e-06 seconds.
Warning: Simulation tolerance relaxed to achieve convergence from 1.3723251027884826e-06 to 1.3723251027894825e-06 seconds.
Warning: Simulation tolerance relaxed to achieve convergence from 1.3723251027894825e-06 to 1.3723251027904825e-06 seconds.
Warning: Simulation tolerance relaxed to achieve convergence from 1.3723251027904825e-06 to 1.3723251027914824e-06 seconds.
Warning: Simulation tolerance relaxed to achieve convergence from 1.3723251027914824e-06 to 1.3723251027924823e-06 seconds.
Warning: Simulation tolerance relaxed to achieve convergence from 1.3723251027924823e-06 to 1.3723251027934822e-06 seconds.
Warning: Simulation tolerance relaxed to achieve convergence from 1.3723251027934822e-06 to 1.3723251027944822e-06 seconds.
Warning: Simulation tolerance relaxed to achieve convergence from 1.3723251027944822e-06 to 1.3723251027954821e-06 seconds.
Warning: Simulation tolerance relaxed to achieve convergence from 1.3723251027954821e-06 to 1.3723251027964820e-06 seconds.
Warning: Simulation tolerance relaxed to achieve convergence from 1.3723251027964820e-06 to 1.3723251027974819e-06 seconds.
Warning: Simulation tolerance relaxed to achieve convergence from 1.3723251027974819e-06 to 1.3723251027984818e-06 seconds.
Warning: Simulation tolerance relaxed to achieve convergence from 1.3723251027984818e-06 to 1.3723251027994818e-06 seconds.
Warning: Simulation tolerance relaxed to achieve convergence from 1.3723251027994818e-06 to 1.3723251028004817e-06 seconds.
Warning: Simulation tolerance relaxed to achieve convergence from 1.3723251028004817e-06 to 1.3723251028014816e-06 seconds.
Warning: Simulation tolerance relaxed to achieve convergence from 1.3723251028014816e-06 to 1.3723251028024815e-06 seconds.
Warning: Simulation tolerance relaxed to achieve convergence from 1.3723251028024815e-06 to 1.3723251028034815e-06 seconds.
Warning: Simulation tolerance relaxed to achieve convergence from 1.3723251028034815e-06 to 1.3723251028044814e-06 seconds.
Warning: Simulation tolerance relaxed to achieve convergence from 1.3723251028044814e-06 to 1.3723251028054813e-06 seconds.
Warning: Simulation tolerance relaxed to achieve convergence from 1.3723251028054813e-06 to 1.3723251028064812e-06 seconds.
Warning: Simulation tolerance relaxed to achieve convergence from 1.3723251028064812e-06 to 1.3723251028074811e-06 seconds.
Warning: Simulation tolerance relaxed to achieve convergence from 1.3723251028074811e-06 to 1.3723251028084811e-06 seconds.
Warning: Simulation tolerance relaxed to achieve convergence from 1.3723251028084811e-06 to 1.3723251028094810e-06 seconds.
Warning: Simulation tolerance relaxed to achieve convergence from 1.3723251028094810e-06 to 1.3723251028104809e-06 seconds.
Warning: Simulation tolerance relaxed to achieve convergence from 1.3723251028104809e-06 to 1.3723251028114808e-06 seconds.
Warning: Simulation tolerance relaxed to achieve convergence from 1.3723251028114808e-06 to 1.3723251028124808e-06 seconds.
Warning: Simulation tolerance relaxed to achieve convergence from 1.3723251028124808e-06 to 1.3723251028134807e-06 seconds.
Warning: Simulation tolerance relaxed to achieve convergence from 1.3723251028134807e-06 to 1.3723251028144806e-06 seconds.
Warning: Simulation tolerance relaxed to achieve convergence from 1.3723251028144806e-06 to 1.3723251028154805e-06 seconds.
Warning: Simulation tolerance relaxed to achieve convergence from 1.3723251028154805e-06 to 1.3723251028164804e-06 seconds.
Warning: Simulation tolerance relaxed to achieve convergence from 1.3723251028164804e-06 to 1.3723251028174804e-06 seconds.
Warning: Simulation tolerance relaxed to achieve convergence from 1.3723251028174804e-06 to 1.3723251028184803e-06 seconds.
Warning: Simulation tolerance relaxed to achieve convergence from 1.3723251028184803e-06 to 1.3723251028194802e-06 seconds.
Warning: Simulation tolerance relaxed to achieve convergence from 1.3723251028194802e-06 to 1.3723251028204801e-06 seconds.
Warning: Simulation tolerance relaxed to achieve convergence from 1.3723251028204801e-06 to 1.3723251028214801e-06 seconds.
Warning: Simulation tolerance relaxed to achieve convergence from 1.3723251028214801e-06 to 1.3723251028224800e-06 seconds.
Warning: Simulation tolerance relaxed to achieve convergence from 1.3723251028224800e-06 to 1.3723251028234799e-06 seconds.
Warning: Simulation tolerance relaxed to achieve convergence from 1.3723251028234799e-06 to 1.3723251028244798e-06 seconds.
Warning: Simulation tolerance relaxed to achieve convergence from 1.3723251028244798e-06 to 1.3723251028254797e-06 seconds.
Warning: Simulation tolerance relaxed to achieve convergence from 1.3723251028254797e-06 to 1.3723251028264797e-06 seconds.
Warning: Simulation tolerance relaxed to achieve convergence from 1.3723251028264797e-06 to 1.3723251028274796e-06 seconds.
Warning: Simulation tolerance relaxed to achieve convergence from 1.3723251028274796e-06 to 1.3723251028284795e-06 seconds.
Warning: Simulation tolerance relaxed to achieve convergence from 1.3723251028284795e-06 to 1.3723251028294794e-06 seconds.
Warning: Simulation tolerance relaxed to achieve convergence from 1.3723251028294794e-06 to 1.3723251028304794e-06 seconds.
Warning: Simulation tolerance relaxed to achieve convergence from 1.3723251028304794e-06 to 1.3723251028314793e-06 seconds.
Warning: Simulation tolerance relaxed to achieve convergence from 1.3723251028314793e-06 to 1.3723251028324792e-06 seconds.
Warning: Simulation tolerance relaxed to achieve convergence from 1.3723251028324792e-06 to 1.3723251028334791e-06 seconds.
Warning: Simulation tolerance relaxed to achieve convergence from 1.3723251028334791e-06 to 1.3723251028344790e-06 seconds.
Warning: Simulation tolerance relaxed to achieve convergence from 1.3723251028344790e-06 to 1.3723251028354790e-06 seconds.
Warning: Simulation tolerance relaxed to achieve convergence from 1.3723251028354790e-06 to 1.3723251028364789e-06 seconds.
Warning: Simulation tolerance relaxed to achieve convergence from 1.3723251028364789e-06 to 1.3723251028374788e-06 seconds.
Warning: Simulation tolerance relaxed to achieve convergence from 1.3723251028374788e-06 to 1.3723251028384787e-06 seconds.
Warning: Simulation tolerance relaxed to achieve convergence from 1.3723251028384787e-06 to 1.3723251028394787e-06 seconds.
Warning: Simulation tolerance relaxed to achieve convergence from 1.3723251028394787e-06 to 1.3723251028404786e-06 seconds.
Warning: Simulation tolerance relaxed to achieve convergence from 1.3723251028404786e-06 to 1.3723251028414785e-06 seconds.
Warning: Simulation tolerance relaxed to achieve convergence from 1.3723251028414785e-06 to 1.3723251028424784e-06 seconds.
Warning: Simulation tolerance relaxed to achieve convergence from 1.3723251028424784e-06 to 1.3723251028434783e-06 seconds.
Warning: Simulation tolerance relaxed to achieve convergence from 1.3723251028434783e-06 to 1.3723251028444783e-06 seconds.
Warning: Simulation tolerance relaxed to achieve convergence from 1.3723251028444783e-06 to 1.3723251028454782e-06 seconds.
Warning: Simulation tolerance relaxed to achieve convergence from 1.3723251028454782e-06 to 1.3723251028464781e-06 seconds.
Warning: Simulation tolerance relaxed to achieve convergence from 1.3723251028464781e-06 to 1.3723251028474780e-06 seconds.
Warning: Simulation tolerance relaxed to achieve convergence from 1.3723251028474780e-06 to 1.3723251028484780e-06 seconds.
Warning: Simulation tolerance relaxed to achieve convergence from 1.3723251028484780e-06 to 1.3723251028494779e-06 seconds.
Warning: Simulation tolerance relaxed to achieve convergence from 1.3723251028494779e-06 to 1.3723251028504778e-06 seconds.
Warning: Simulation tolerance relaxed to achieve convergence from 1.3723251028504778e-06 to 1.3723251028514777e-06 seconds.
Warning: Simulation tolerance relaxed to achieve convergence from 1.3723251028514777e-06 to 1.3723251028524776e-06 seconds.
Warning: Simulation tolerance relaxed to achieve convergence from 1.3723251028524776e-06 to 1.3723251028534776e-06 seconds.
Warning: Simulation tolerance relaxed to achieve convergence from 1.3723251028534776e-06 to 1.3723251028544775e-06 seconds.
Warning: Simulation tolerance relaxed to achieve convergence from 1.3723251028544775e-06 to 1.3723251028554774e-06 seconds.
Warning: Simulation tolerance relaxed to achieve convergence from 1.3723251028554774e-06 to 1.3723251028564773e-06 seconds.
Warning: Simulation tolerance relaxed to achieve convergence from 1.3723251028564773e-06 to 1.3723251028574773e-06 seconds.
Warning: Simulation tolerance relaxed to achieve convergence from 1.3723251028574773e-06 to 1.3723251028584772e-06 seconds.
Warning: Simulation tolerance relaxed to achieve convergence from 1.3723251028584772e-06 to 1.3723251028594771e-06 seconds.
Warning: Simulation tolerance relaxed to achieve convergence from 1.3723251028594771e-06 to 1.3723251028604770e-06 seconds.
Warning: Simulation tolerance relaxed to achieve convergence from 1.3723251028604770e-06 to 1.3723251028614770e-06 seconds.
Warning: Simulation tolerance relaxed to achieve convergence from 1.3723251028614770e-06 to 1.3723251028624769e-06 seconds.
Warning: Simulation tolerance relaxed to achieve convergence from 1.3723251028624769e-06 to 1.3723251028634768e-06 seconds.
Warning: Simulation tolerance relaxed to achieve convergence from 1.3723251028634768e-06 to 1.3723251028644767e-06 seconds.
Warning: Simulation tolerance relaxed to achieve convergence from 1.3723251028644767e-06 to 1.3723251028654766e-06 seconds.
Warning: Simulation tolerance relaxed to achieve convergence from 1.3723251028654766e-06 to 1.3723251028664766e-06 seconds.
Warning: Simulation tolerance relaxed to achieve convergence from 1.3723251028664766e-06 to 1.3723251028674765e-06 seconds.
Warning: Simulation tolerance relaxed to achieve convergence from 1.3723251028674765e-06 to 1.3723251028684764e-06 seconds.
Warning: Simulation tolerance relaxed to achieve convergence from 1.3723251028684764e-06 to 1.3723251028694763e-06 seconds.
Warning: Simulation tolerance relaxed to achieve convergence from 1.3723251028694763e-06 to 1.3723251028704763e-06 seconds.
Warning: Simulation tolerance relaxed to achieve convergence from 1.3723251028704763e-06 to 1.3723251028714762e-06 seconds.
Warning: Simulation tolerance relaxed to achieve convergence from 1.3723251028714762e-06 to 1.3723251028724761e-06 seconds.
Warning: Simulation tolerance relaxed to achieve convergence from 1.3723251028724761e-06 to 1.3723251028724761e-06 seconds.

Simulation stopped by user.
Total elapsed time: 11.542 seconds.

Files loaded:
C:\Users\owend\Desktop\Projects\LCR\LCR_Meter\simulation\Draft1.net
C:\Users\owend\Desktop\Projects\LCR\LCR_Meter\simulation\models\OPA365.txt
C:\Users\owend\AppData\Local\LTspice\lib\sub\ADA4807-4.sub
C:\Users\owend\AppData\Local\LTspice\lib\sub\ADG1209.sub
C:\Users\owend\Desktop\Projects\LCR\LCR_Meter\simulation\models\tmux1309.txt

