LTspice 24.1.10 for Windows
Circuit: C:\Users\owend\Desktop\Projects\LCR\LCR_Meter\simulation\Draft2.net
Start Time: Sun Mar 29 01:26:59 2026
solver = Normal
Maximum thread count: 16
tnom = 27
temp = 27
method = trap
Instance "u1:M62": Length shorter than recommended for a level 1 MOSFET.
Instance "u1:M63": Length shorter than recommended for a level 1 MOSFET.
Instance "u1:M61": Length shorter than recommended for a level 1 MOSFET.
Instance "u1:M66": Length shorter than recommended for a level 1 MOSFET.
Instance "u1:M64": Length shorter than recommended for a level 1 MOSFET.
Instance "u1:M65": Length shorter than recommended for a level 1 MOSFET.
Instance "u1:M67": Length shorter than recommended for a level 1 MOSFET.
Instance "u1:M68": Length shorter than recommended for a level 1 MOSFET.
Instance "u3:M62": Length shorter than recommended for a level 1 MOSFET.
Instance "u3:M63": Length shorter than recommended for a level 1 MOSFET.
Instance "u3:M61": Length shorter than recommended for a level 1 MOSFET.
Instance "u3:M66": Length shorter than recommended for a level 1 MOSFET.
Instance "u3:M64": Length shorter than recommended for a level 1 MOSFET.
Instance "u3:M65": Length shorter than recommended for a level 1 MOSFET.
Instance "u3:M67": Length shorter than recommended for a level 1 MOSFET.
Instance "u3:M68": Length shorter than recommended for a level 1 MOSFET.
Direct Newton iteration failed to find .op point.  (Use ".option noopiter" to skip.)
Starting Gmin stepping
Gmin = 10
Gmin = 1.07374
Gmin = 0.115292
Gmin = 0.0123794
Gmin = 0.00132923
Gmin = 0.000142725
vernier = 0.5
Gmin = 2.39452e-05
vernier = 0.25
vernier = 0.125
vernier = 0.0625
vernier = 0.03125
vernier = 0.015625
vernier = 0.0078125
vernier = 0.00390625
vernier = 0.00195312
vernier = 0.000976562
vernier = 0.000488281
Gmin = 2.39452e-05
Gmin = 0
Gmin stepping failed

Starting source stepping with srcstepmethod=0
Source Step = 3.0303%
Source Step = 15.1545%
Starting source stepping with srcstepmethod=1
Source Step = 3.0303%
Source Step = 33.3333%
Source Step = 63.6364%
Source Step = 93.9394%
Source Step = 100%
Source Step = 100%
Source Step = 100%
Source Step = 100%
Source stepping succeeded in finding the operating point.

Total elapsed time: 1.034 seconds.

Files loaded:
C:\Users\owend\Desktop\Projects\LCR\LCR_Meter\simulation\Draft2.net
C:\Users\owend\Desktop\Projects\LCR\LCR_Meter\simulation\models\OPA365.txt
C:\Users\owend\AppData\Local\LTspice\lib\sub\MAX4052A.sub

