LTspice 26.0.1 for Windows
Circuit: C:\Users\owend\OneDrive\Desktop\LCR_Meter\repo\LCR_Meter\simulation\Draft2.net
Start Time: Wed Mar 18 23:35:09 2026
solver = Normal
Maximum thread count: 12
tnom = 27
temp = 27
method = modified trap
Instance "u1:M62": Length shorter than recommended for a level 1 MOSFET.
Instance "u1:M63": Length shorter than recommended for a level 1 MOSFET.
Instance "u1:M61": Length shorter than recommended for a level 1 MOSFET.
Instance "u1:M66": Length shorter than recommended for a level 1 MOSFET.
Instance "u1:M64": Length shorter than recommended for a level 1 MOSFET.
Instance "u1:M65": Length shorter than recommended for a level 1 MOSFET.
Instance "u1:M67": Length shorter than recommended for a level 1 MOSFET.
Instance "u1:M68": Length shorter than recommended for a level 1 MOSFET.
Instance "u3:M62": Length shorter than recommended for a level 1 MOSFET.
Instance "u3:M63": Length shorter than recommended for a level 1 MOSFET.
Instance "u3:M61": Length shorter than recommended for a level 1 MOSFET.
Instance "u3:M66": Length shorter than recommended for a level 1 MOSFET.
Instance "u3:M64": Length shorter than recommended for a level 1 MOSFET.
Instance "u3:M65": Length shorter than recommended for a level 1 MOSFET.
Instance "u3:M67": Length shorter than recommended for a level 1 MOSFET.
Instance "u3:M68": Length shorter than recommended for a level 1 MOSFET.
Direct Newton iteration failed to find operating point.
Starting Gmin stepping
Gmin stepping failed to find operating point. Use".option gminsteps=0" to skip all Gmin stepping.
Starting source stepping with srcstepmethod=0
Starting source stepping with srcstepmethod=1
Source stepping succeeded in finding the operating point.

Total elapsed time: 2.032 seconds.

Files loaded:
C:\Users\owend\OneDrive\Desktop\LCR_Meter\repo\LCR_Meter\simulation\Draft2.net
C:\Users\owend\OneDrive\Desktop\LCR_Meter\repo\LCR_Meter\simulation\models\OPA365.txt
C:\Users\owend\AppData\Local\LTspice\lib\sub\MAX4052A.sub

