LTspice 24.1.10 for Windows
Circuit: C:\Users\owend\Desktop\Projects\LCR\LCR_Meter\simulation\SigGen.net
Start Time: Thu Apr  2 22:03:44 2026
solver = Normal
Maximum thread count: 16
tnom = 27
temp = 27
method = trap
Direct Newton iteration for .op point succeeded.
Total elapsed time: 0.074 seconds.

Files loaded:
C:\Users\owend\Desktop\Projects\LCR\LCR_Meter\simulation\SigGen.net
C:\Users\owend\Desktop\Projects\LCR\LCR_Meter\simulation\models\tlv916x.txt

