LTspice 26.0.1 for Windows
Circuit: C:\Users\owend\OneDrive\Desktop\LCR_Meter\repo\LCR_Meter\simulation\TIA_stab.net
Start Time: Fri Mar 20 22:57:58 2026
solver = Normal
Maximum thread count: 12
tnom = 27
temp = 27
method = modified trap
Direct Newton iteration failed to find operating point.
Starting Gmin stepping
Gmin stepping succeeded in finding the operating point.

Total elapsed time: 0.212 seconds.

Files loaded:
C:\Users\owend\OneDrive\Desktop\LCR_Meter\repo\LCR_Meter\simulation\TIA_stab.net
C:\Users\owend\OneDrive\Desktop\LCR_Meter\repo\LCR_Meter\simulation\models\tlv916x.txt
C:\Users\owend\AppData\Local\LTspice\lib\sub\ADG709.sub

