LTspice 24.1.10 for Windows
Circuit: C:\Users\owend\Desktop\Projects\LCR\simulation\top.net
Start Time: Sun Mar 15 23:25:17 2026
Options: gmin=1e-10  gshunt=1e-9  reltol=0.01  abstol=1n
solver = Normal
Maximum thread count: 16
tnom = 27
temp = 27
method = trap
gmin = 1e-10
abstol = 1e-09
reltol = 0.01
Instance "u3:M62": Length shorter than recommended for a level 1 MOSFET.
Instance "u3:M63": Length shorter than recommended for a level 1 MOSFET.
Instance "u3:M61": Length shorter than recommended for a level 1 MOSFET.
Instance "u3:M66": Length shorter than recommended for a level 1 MOSFET.
Instance "u3:M64": Length shorter than recommended for a level 1 MOSFET.
Instance "u3:M65": Length shorter than recommended for a level 1 MOSFET.
Instance "u3:M67": Length shorter than recommended for a level 1 MOSFET.
Instance "u3:M68": Length shorter than recommended for a level 1 MOSFET.
Instance "u4:M62": Length shorter than recommended for a level 1 MOSFET.
Instance "u4:M63": Length shorter than recommended for a level 1 MOSFET.
Instance "u4:M61": Length shorter than recommended for a level 1 MOSFET.
Instance "u4:M66": Length shorter than recommended for a level 1 MOSFET.
Instance "u4:M64": Length shorter than recommended for a level 1 MOSFET.
Instance "u4:M65": Length shorter than recommended for a level 1 MOSFET.
Instance "u4:M67": Length shorter than recommended for a level 1 MOSFET.
Instance "u4:M68": Length shorter than recommended for a level 1 MOSFET.
Instance "u5:M62": Length shorter than recommended for a level 1 MOSFET.
Instance "u5:M63": Length shorter than recommended for a level 1 MOSFET.
Instance "u5:M61": Length shorter than recommended for a level 1 MOSFET.
Instance "u5:M66": Length shorter than recommended for a level 1 MOSFET.
Instance "u5:M64": Length shorter than recommended for a level 1 MOSFET.
Instance "u5:M65": Length shorter than recommended for a level 1 MOSFET.
Instance "u5:M67": Length shorter than recommended for a level 1 MOSFET.
Instance "u5:M68": Length shorter than recommended for a level 1 MOSFET.
Instance "u6:M62": Length shorter than recommended for a level 1 MOSFET.
Instance "u6:M63": Length shorter than recommended for a level 1 MOSFET.
Instance "u6:M61": Length shorter than recommended for a level 1 MOSFET.
Instance "u6:M66": Length shorter than recommended for a level 1 MOSFET.
Instance "u6:M64": Length shorter than recommended for a level 1 MOSFET.
Instance "u6:M65": Length shorter than recommended for a level 1 MOSFET.
Instance "u6:M67": Length shorter than recommended for a level 1 MOSFET.
Instance "u6:M68": Length shorter than recommended for a level 1 MOSFET.
Direct Newton iteration failed to find .op point.  (Use ".option noopiter" to skip.)
Starting Gmin stepping
Gmin = 10
vernier = 0.5
Gmin = 1.86414
vernier = 0.25
vernier = 0.125
vernier = 0.0625
vernier = 0.03125
Gmin = 1.94331
vernier = 0.015625
vernier = 0.0078125
vernier = 0.00390625
vernier = 0.00195312
vernier = 0.000976562
vernier = 0.000488281
Gmin = 0
Gmin stepping failed

Starting source stepping with srcstepmethod=0
Source Step = 3.0303%
vernier = 0.25
Source Step = 0.520833%
Source Step = 0.994318%
Source Step = 1.4678%
Source Step = 1.94129%
Source Step = 2.41477%
vernier = 0.0234375
Source Step = 3.0303%
Source Step = 3.74053%
Source Step = 4.45076%
Source Step = 5.16098%
Source Step = 5.87121%
vernier = 0.0351562
Source Step = 6.759%
Source Step = 7.82434%
Source Step = 8.88968%
Source Step = 9.95502%
Source Step = 11.0204%
vernier = 0.0527344
Source Step = 12.2988%
Source Step = 13.8968%
Source Step = 15.4948%
Source Step = 17.0928%
Source Step = 18.6908%
Source Step = 19.6996%
Source Step = 19.7994%
Source Step = 19.8993%
Source Step = 19.9992%
Source Step = 20.0991%
Source Step = 20.1989%
vernier = 0.00494385
Source Step = 20.3288%
Source Step = 20.4786%
Source Step = 20.6284%
Source Step = 20.7782%
Source Step = 20.928%
vernier = 0.00741577
Source Step = 21.1153%
Source Step = 21.34%
Source Step = 21.5647%
Source Step = 21.7895%
Source Step = 22.0142%
vernier = 0.0111237
Source Step = 22.2838%
Source Step = 22.5114%
Source Step = 22.5956%
Source Step = 22.6799%
Source Step = 22.7642%
Source Step = 22.8485%
Source Step = 22.9327%
Source Step = 23.017%
Source Step = 23.1013%
Source Step = 23.1855%
vernier = 0.00417137
Source Step = 23.2782%
Source Step = 23.4046%
Source Step = 23.531%
Source Step = 23.6574%
Source Step = 23.7839%
vernier = 0.00625706
Source Step = 23.9166%
Source Step = 24.1062%
Source Step = 24.2958%
Source Step = 24.4854%
Source Step = 24.675%
Source Step = 24.8646%
vernier = 0.00938559
Source Step = 25.149%
Source Step = 25.4334%
Source Step = 25.7179%
Source Step = 26.0023%
Source Step = 26.2867%
vernier = 0.0140784
Source Step = 26.6991%
Source Step = 27.1257%
Source Step = 27.5523%
Source Step = 27.9789%
Source Step = 28.4055%
vernier = 0.0211176
Source Step = 29.0028%
Source Step = 29.6427%
Source Step = 30.2827%
Source Step = 30.9226%
Source Step = 31.5625%
vernier = 0.0316764
Source Step = 32.4264%
Source Step = 33.3863%
Source Step = 34.3462%
Source Step = 35.3061%
Source Step = 36.266%
vernier = 0.0475145
Source Step = 37.5138%
Source Step = 38.9537%
Source Step = 40.3935%
Source Step = 41.8333%
Source Step = 43.2732%
vernier = 0.0712718
Source Step = 45.073%
Source Step = 47.2327%
Source Step = 49.3925%
Source Step = 51.5522%
Source Step = 53.712%
vernier = 0.106908
Source Step = 56.3037%
Source Step = 58.3487%
Source Step = 58.5512%
Source Step = 58.7536%
Source Step = 58.9561%
Source Step = 59.1586%
Source Step = 59.3611%
vernier = 0.0100226
Source Step = 59.6648%
Source Step = 59.9685%
Source Step = 60.2722%
Source Step = 60.5759%
Source Step = 60.8796%
vernier = 0.0150339
Source Step = 61.32%
Source Step = 61.7756%
Source Step = 62.2312%
Source Step = 62.6867%
Source Step = 63.1423%
vernier = 0.0225508
Source Step = 63.7801%
Source Step = 64.4635%
Source Step = 65.1468%
Source Step = 65.8302%
Source Step = 66.5135%
vernier = 0.0338263
Source Step = 67.4361%
Source Step = 68.4611%
Source Step = 69.4862%
Source Step = 70.5112%
Source Step = 71.5362%
vernier = 0.0507394
Source Step = 72.8688%
Source Step = 74.4063%
Source Step = 75.9439%
Source Step = 77.4815%
Source Step = 79.019%
vernier = 0.0761091
Source Step = 80.941%
Source Step = 83.2473%
Source Step = 85.5536%
Source Step = 87.86%
Source Step = 88.8834%
vernier = 0.0011892
Source Step = 88.905%
Source Step = 88.9411%
Source Step = 88.9771%
Source Step = 89.0131%
Source Step = 89.0492%
vernier = 0.00178381
Source Step = 89.0942%
Source Step = 89.1483%
Source Step = 89.2023%
Source Step = 89.2564%
Source Step = 89.3104%
vernier = 0.00267571
Source Step = 89.3753%
Source Step = 89.4564%
Source Step = 89.5375%
Source Step = 89.6186%
Source Step = 89.6996%
vernier = 0.00401357
Source Step = 89.7929%
Source Step = 89.9145%
Source Step = 90.0361%
Source Step = 90.0635%
Source Step = 90.0939%
Source Step = 90.1243%
Source Step = 90.1547%
Source Step = 90.1851%
Source Step = 90.2155%
Source Step = 90.2459%
Source Step = 90.2763%
Source Step = 90.3067%
Source Step = 90.3371%
Source Step = 90.3675%
Source Step = 90.398%
Source Step = 90.4284%
Source Step = 90.4588%
Source Step = 90.4892%
Source Step = 90.5196%
Source Step = 90.55%
Source Step = 90.5804%
Source Step = 90.6108%
Source Step = 90.6412%
Source Step = 90.6716%
Source Step = 90.702%
Source Step = 90.7324%
Source Step = 90.7628%
Source Step = 90.7932%
Source Step = 90.8236%
Source Step = 90.854%
Source Step = 90.8844%
Source Step = 90.9149%
Source Step = 90.9453%
Source Step = 90.9757%
Source Step = 91.0061%
Source Step = 91.0365%
Source Step = 91.0669%
Source Step = 91.0973%
Source Step = 91.1277%
Source Step = 91.1581%
Source Step = 91.1885%
Source Step = 91.2189%
Source Step = 91.2493%
Source Step = 91.2797%
Source Step = 91.3101%
Source Step = 91.3405%
Source Step = 91.3709%
Source Step = 91.4013%
Source Step = 91.4317%
Source Step = 91.4622%
Source Step = 91.4926%
Source Step = 91.523%
Source Step = 91.5534%
Source Step = 91.5838%
Source Step = 91.6142%
Source Step = 91.6446%
Source Step = 91.675%
Source Step = 91.7054%
Source Step = 91.7358%
Source Step = 91.7662%
Source Step = 91.7966%
Source Step = 91.827%
Source Step = 91.8574%
Source Step = 91.8878%
Source Step = 91.9182%
Source Step = 91.9486%
Source Step = 91.9791%
Source Step = 92.0095%
Source Step = 92.0399%
Source Step = 92.0703%
Source Step = 92.1007%
Source Step = 92.1311%
Source Step = 92.1615%
Source Step = 92.1919%
Source Step = 92.2223%
Source Step = 92.2527%
Source Step = 92.2831%
Source Step = 92.3135%
vernier = 0.00150509
Source Step = 92.3591%
Source Step = 92.4047%
Source Step = 92.4503%
Source Step = 92.496%
Source Step = 92.5416%
vernier = 0.00225763
Source Step = 92.6077%
Source Step = 92.6761%
Source Step = 92.7445%
Source Step = 92.8129%
Source Step = 92.8813%
vernier = 0.00338645
Source Step = 92.9771%
Source Step = 93.0797%
Source Step = 93.1824%
Source Step = 93.285%
Source Step = 93.3876%
vernier = 0.00507967
Source Step = 93.5261%
Source Step = 93.6801%
Source Step = 93.834%
Source Step = 93.9879%
Source Step = 94.1419%
vernier = 0.0076195
Source Step = 94.342%
Source Step = 94.5729%
Source Step = 94.8038%
Source Step = 95.0346%
Source Step = 95.2655%
vernier = 0.0114293
Source Step = 95.5542%
Source Step = 95.9005%
Source Step = 96.2468%
Source Step = 96.5932%
Source Step = 96.9395%
vernier = 0.0171439
Source Step = 97.3551%
Source Step = 97.8746%
Source Step = 98.3942%
Source Step = 98.9137%
Source Step = 99.4332%
vernier = 0.0257158
Source Step = 100%
Source stepping succeeded in finding the operating point.

Total elapsed time: 14.370 seconds.

Files loaded:
C:\Users\owend\Desktop\Projects\LCR\simulation\top.net
C:\Users\owend\Desktop\Projects\LCR\simulation\models\TLV354.txt
C:\Users\owend\Desktop\Projects\LCR\simulation\models\OPA365.txt

