LTspice 26.0.1 for Windows
Circuit: C:\Users\owend\OneDrive\Desktop\LCR_Meter\repo\LCR_Meter\simulation\full_design\tb_dac_filter.net
Start Time: Sun Apr 19 13:32:34 2026
solver = Normal
Maximum thread count: 12
tnom = 27
temp = 27
method = modified trap
Direct Newton iteration succeeded in finding operating point.
Total elapsed time: 0.429 seconds.

Files loaded:
C:\Users\owend\OneDrive\Desktop\LCR_Meter\repo\LCR_Meter\simulation\full_design\tb_dac_filter.net
C:\Users\owend\OneDrive\Desktop\LCR_Meter\repo\LCR_Meter\simulation\models\tlv916x.txt

