LTspice 26.0.1 for Windows
Circuit: C:\Users\owend\OneDrive\Desktop\LCR_Meter\repo\LCR_Meter\simulation\full_design\top_hierarchy.net
Start Time: Sun Apr 19 13:52:57 2026
solver = Normal
Maximum thread count: 12
tnom = 27
temp = 27
method = modified trap
Instance "x1:u3:M62": Length shorter than recommended for a level 1 MOSFET.
Instance "x1:u3:M63": Length shorter than recommended for a level 1 MOSFET.
Instance "x1:u3:M61": Length shorter than recommended for a level 1 MOSFET.
Instance "x1:u3:M66": Length shorter than recommended for a level 1 MOSFET.
Instance "x1:u3:M64": Length shorter than recommended for a level 1 MOSFET.
Instance "x1:u3:M65": Length shorter than recommended for a level 1 MOSFET.
Instance "x1:u3:M67": Length shorter than recommended for a level 1 MOSFET.
Instance "x1:u3:M68": Length shorter than recommended for a level 1 MOSFET.
Instance "x1:u4:M62": Length shorter than recommended for a level 1 MOSFET.
Instance "x1:u4:M63": Length shorter than recommended for a level 1 MOSFET.
Instance "x1:u4:M61": Length shorter than recommended for a level 1 MOSFET.
Instance "x1:u4:M66": Length shorter than recommended for a level 1 MOSFET.
Instance "x1:u4:M64": Length shorter than recommended for a level 1 MOSFET.
Instance "x1:u4:M65": Length shorter than recommended for a level 1 MOSFET.
Instance "x1:u4:M67": Length shorter than recommended for a level 1 MOSFET.
Instance "x1:u4:M68": Length shorter than recommended for a level 1 MOSFET.
Instance "x3:u3:M62": Length shorter than recommended for a level 1 MOSFET.
Instance "x3:u3:M63": Length shorter than recommended for a level 1 MOSFET.
Instance "x3:u3:M61": Length shorter than recommended for a level 1 MOSFET.
Instance "x3:u3:M66": Length shorter than recommended for a level 1 MOSFET.
Instance "x3:u3:M64": Length shorter than recommended for a level 1 MOSFET.
Instance "x3:u3:M65": Length shorter than recommended for a level 1 MOSFET.
Instance "x3:u3:M67": Length shorter than recommended for a level 1 MOSFET.
Instance "x3:u3:M68": Length shorter than recommended for a level 1 MOSFET.
Instance "x3:u4:M62": Length shorter than recommended for a level 1 MOSFET.
Instance "x3:u4:M63": Length shorter than recommended for a level 1 MOSFET.
Instance "x3:u4:M61": Length shorter than recommended for a level 1 MOSFET.
Instance "x3:u4:M66": Length shorter than recommended for a level 1 MOSFET.
Instance "x3:u4:M64": Length shorter than recommended for a level 1 MOSFET.
Instance "x3:u4:M65": Length shorter than recommended for a level 1 MOSFET.
Instance "x3:u4:M67": Length shorter than recommended for a level 1 MOSFET.
Instance "x3:u4:M68": Length shorter than recommended for a level 1 MOSFET.
Early termination of direct N-R iteration.
Direct Newton iteration failed to find operating point.
Starting Gmin stepping
Gmin stepping failed to find operating point. Use".option gminsteps=0" to skip all Gmin stepping.
Starting source stepping with srcstepmethod=0
Starting source stepping with srcstepmethod=1
Source stepping succeeded in finding the operating point.

Total elapsed time: 17.450 seconds.

Files loaded:
C:\Users\owend\OneDrive\Desktop\LCR_Meter\repo\LCR_Meter\simulation\full_design\top_hierarchy.net
C:\Users\owend\OneDrive\Desktop\LCR_Meter\repo\LCR_Meter\simulation\models\OPA365.txt
C:\Users\owend\OneDrive\Desktop\LCR_Meter\repo\LCR_Meter\simulation\models\tlv916x.txt
C:\Users\owend\AppData\Local\LTspice\lib\sub\ADG1209.sub
C:\Users\owend\AppData\Local\LTspice\lib\sub\ADG709.sub
C:\Users\owend\OneDrive\Desktop\LCR_Meter\repo\LCR_Meter\simulation\models\ths4561.txt

